### 
### Created by X-TOOL on Mon Aug  2 16:15:14 2021
### 

@<TRIPOS>MOLECULE
6n8y_ligand
   52    54     1     0     0
SMALL
GAST_HUCK


@<TRIPOS>ATOM
      1 C4         -0.9770  -10.2220  -22.5150 C.ar      1 KFY         0.1543
      2 C5         -0.1700  -10.9410  -23.3170 C.ar      1 KFY         0.0921
      3 C6          1.1430  -11.1030  -22.9720 C.ar      1 KFY         0.1251
      4 C8         -2.1520  -10.8740  -24.1680 C.2       1 KFY         0.1361
      5 N1          1.6070  -10.5930  -21.8210 N.ar      1 KFY        -0.2729
      6 N3         -0.5520   -9.6780  -21.3560 N.ar      1 KFY        -0.2744
      7 CAA        -5.0280   -6.5240  -24.4670 C.3       1 KFY        -0.0652
      8 CAF        -4.8440   -7.8680  -23.7680 C.3       1 KFY        -0.0535
      9 CAG        -3.4860   -8.1170  -23.1440 C.3       1 KFY        -0.0259
     10 CAK        -3.3440   -9.4810  -22.4380 C.3       1 KFY         0.0604
     11 N9         -2.2020  -10.1810  -23.0430 N.pl3     1 KFY        -0.2160
     12 C2          0.7680   -9.8660  -20.9910 C.ar      1 KFY         0.0509
     13 N6          1.9860  -11.7770  -23.7670 N.pl3     1 KFY        -0.3168
     14 N7         -0.9180  -11.3310  -24.3700 N.2       1 KFY        -0.3061
     15 CAL        -3.3430  -11.0740  -25.1300 C.3       1 KFY         0.0534
     16 CAS        -4.4920  -11.7060  -24.5380 C.ar      1 KFY        -0.0506
     17 CAJ        -5.7610  -11.1710  -24.8120 C.ar      1 KFY        -0.0477
     18 CAI        -4.3850  -12.8300  -23.7000 C.ar      1 KFY        -0.0477
     19 CAU        -5.5420  -13.4060  -23.1520 C.ar      1 KFY         0.1054
     20 OAP        -5.5250  -14.4880  -22.3240 O.3       1 KFY        -0.3296
     21 CAB        -4.3130  -15.2370  -22.3130 C.3       1 KFY         0.0563
     22 CAX        -6.7930  -12.8680  -23.4510 C.ar      1 KFY         0.1399
     23 OAR        -7.9600  -13.3900  -22.9170 O.3       1 KFY        -0.3338
     24 CAD        -8.2590  -14.7390  -23.3030 C.3       1 KFY         0.0527
     25 CAV        -6.9050  -11.7500  -24.2600 C.ar      1 KFY         0.1054
     26 OAQ        -8.1940  -11.3120  -24.4880 O.3       1 KFY        -0.3296
     27 CAC        -8.2530  -10.1960  -25.3900 C.3       1 KFY         0.0563
     28 H1         -6.0467   -6.4605  -24.8772 H         1 KFY         0.0230
     29 H2         -4.2973   -6.4326  -25.2841 H         1 KFY         0.0230
     30 H3         -4.8728   -5.7101  -23.7435 H         1 KFY         0.0230
     31 H4         -5.0224   -8.6597  -24.5105 H         1 KFY         0.0263
     32 H5         -5.5978   -7.9372  -22.9699 H         1 KFY         0.0263
     33 H6         -3.2987   -7.3260  -22.4029 H         1 KFY         0.0291
     34 H7         -2.7278   -8.0616  -23.9390 H         1 KFY         0.0291
     35 H8         -4.2615  -10.0718  -22.5765 H         1 KFY         0.0609
     36 H9         -3.1640   -9.3297  -21.3634 H         1 KFY         0.0609
     37 H10         1.1437   -9.4485  -20.0638 H         1 KFY         0.0978
     38 H11         2.9724  -11.8905  -23.4932 H         1 KFY         0.1811
     39 H12         1.6473  -12.1814  -24.6517 H         1 KFY         0.1811
     40 H13        -3.0040  -11.6971  -25.9707 H         1 KFY         0.0663
     41 H14        -3.6501  -10.0868  -25.5056 H         1 KFY         0.0663
     42 H15        -5.8528  -10.3036  -25.4557 H         1 KFY         0.0371
     43 H16        -3.4111  -13.2509  -23.4776 H         1 KFY         0.0371
     44 H17        -4.4102  -16.0815  -21.6149 H         1 KFY         0.0572
     45 H18        -3.4844  -14.5890  -21.9913 H         1 KFY         0.0572
     46 H19        -4.1087  -15.6188  -23.3242 H         1 KFY         0.0572
     47 H20        -9.1992  -15.0563  -22.8284 H         1 KFY         0.0565
     48 H21        -7.4431  -15.4023  -22.9799 H         1 KFY         0.0565
     49 H22        -8.3640  -14.7928  -24.3966 H         1 KFY         0.0565
     50 H23        -9.3012   -9.8939  -25.5314 H         1 KFY         0.0572
     51 H24        -7.8207  -10.4848  -26.3594 H         1 KFY         0.0572
     52 H25        -7.6824   -9.3545  -24.9701 H         1 KFY         0.0572
@<TRIPOS>BOND
     1    1    2 ar 
     2    1    6 ar 
     3   11    1 1  
     4    2    3 ar 
     5   14    2 1  
     6    3    5 ar 
     7    3   13 1  
     8   11    4 1  
     9    4   14 2  
    10    4   15 1  
    11   12    5 ar 
    12    6   12 ar 
    13    8    7 1  
    14    9    8 1  
    15   10    9 1  
    16   10   11 1  
    17   15   16 1  
    18   16   17 ar 
    19   16   18 ar 
    20   17   25 ar 
    21   18   19 ar 
    22   19   20 1  
    23   19   22 ar 
    24   20   21 1  
    25   22   23 1  
    26   22   25 ar 
    27   23   24 1  
    28   25   26 1  
    29   26   27 1  
    30    7   28 1  
    31    7   29 1  
    32    7   30 1  
    33    8   31 1  
    34    8   32 1  
    35    9   33 1  
    36    9   34 1  
    37   10   35 1  
    38   10   36 1  
    39   12   37 1  
    40   13   38 1  
    41   13   39 1  
    42   15   40 1  
    43   15   41 1  
    44   17   42 1  
    45   18   43 1  
    46   21   44 1  
    47   21   45 1  
    48   21   46 1  
    49   24   47 1  
    50   24   48 1  
    51   24   49 1  
    52   27   50 1  
    53   27   51 1  
    54   27   52 1  
@<TRIPOS>SUBSTRUCTURE
     1 KFY         1

