### 
### Created by X-TOOL on Mon Aug  2 16:15:15 2021
### 

@<TRIPOS>MOLECULE
6n9h_ligand
   29    31     1     0     0
SMALL
GAST_HUCK


@<TRIPOS>ATOM
      1 N1         24.9850  -14.4310  -34.3200 N.4       1 MOL         0.2229
      2 C10        25.0010  -14.4290  -32.8430 C.3       1 MOL        -0.0127
      3 C7         24.0490  -13.3110  -32.3190 C.3       1 MOL        -0.0041
      4 C1         24.0130  -13.3150  -30.7710 C.3       1 MOL        -0.0352
      5 C8         24.4990  -15.8090  -32.3200 C.3       1 MOL        -0.0041
      6 C5         24.5130  -15.8340  -30.7720 C.3       1 MOL        -0.0352
      7 C6         23.5390  -14.7230  -30.2640 C.3       1 MOL        -0.0469
      8 C4         25.9660  -15.5410  -30.2520 C.3       1 MOL        -0.0469
      9 C9         26.4420  -14.1700  -32.3040 C.3       1 MOL        -0.0041
     10 C3         26.4440  -14.1410  -30.7550 C.3       1 MOL        -0.0352
     11 C2         25.4580  -13.0280  -30.2530 C.3       1 MOL        -0.0469
     12 H1         24.0461  -14.5998  -34.6456 H         1 MOL         0.1999
     13 H2         25.5947  -15.1573  -34.6617 H         1 MOL         0.1999
     14 H3         25.3032  -13.5373  -34.6607 H         1 MOL         0.1999
     15 H4         23.0345  -13.4881  -32.7056 H         1 MOL         0.0325
     16 H5         24.4100  -12.3332  -32.6706 H         1 MOL         0.0325
     17 H6         23.3230  -12.5389  -30.4083 H         1 MOL         0.0303
     18 H7         25.1574  -16.6032  -32.7017 H         1 MOL         0.0325
     19 H8         23.4726  -15.9807  -32.6764 H         1 MOL         0.0325
     20 H9         24.1822  -16.8183  -30.4091 H         1 MOL         0.0303
     21 H10        22.5270  -14.9248  -30.6449 H         1 MOL         0.0271
     22 H11        23.5245  -14.7274  -29.1641 H         1 MOL         0.0271
     23 H12        26.6502  -16.3158  -30.6281 H         1 MOL         0.0271
     24 H13        25.9681  -15.5526  -29.1521 H         1 MOL         0.0271
     25 H14        26.8027  -13.2031  -32.6847 H         1 MOL         0.0325
     26 H15        27.1086  -14.9729  -32.6520 H         1 MOL         0.0325
     27 H16        27.4578  -13.9331  -30.3821 H         1 MOL         0.0303
     28 H17        25.4540  -13.0152  -29.1531 H         1 MOL         0.0271
     29 H18        25.7917  -12.0500  -30.6299 H         1 MOL         0.0271
@<TRIPOS>BOND
     1    1    2 1  
     2    2    3 1  
     3    2    5 1  
     4    2    9 1  
     5    3    4 1  
     6    4    7 1  
     7    4   11 1  
     8    5    6 1  
     9    6    7 1  
    10    6    8 1  
    11    8   10 1  
    12    9   10 1  
    13   10   11 1  
    14    1   12 1  
    15    1   13 1  
    16    1   14 1  
    17    3   15 1  
    18    3   16 1  
    19    4   17 1  
    20    5   18 1  
    21    5   19 1  
    22    6   20 1  
    23    7   21 1  
    24    7   22 1  
    25    8   23 1  
    26    8   24 1  
    27    9   25 1  
    28    9   26 1  
    29   10   27 1  
    30   11   28 1  
    31   11   29 1  
@<TRIPOS>SUBSTRUCTURE
     1 MOL         1

