### 
### Created by X-TOOL on Mon Aug  2 16:10:18 2021
### 

@<TRIPOS>MOLECULE
6n9p_ligand
   55    58     1     0     0
SMALL
GAST_HUCK


@<TRIPOS>ATOM
      1 N3         18.1610    5.1510    0.7000 N.ar      1 KHD        -0.3002
      2 C4         18.0750    5.2870    2.0360 C.ar      1 KHD         0.1068
      3 C5         19.1530    5.7720    2.7700 C.ar      1 KHD         0.0557
      4 C6         20.3160    6.1370    2.0980 C.ar      1 KHD         0.1321
      5 C8         18.9590    5.8950    4.2490 C.ar      1 KHD        -0.0295
      6 C10        18.5090    4.8610    6.3930 C.ar      1 KHD        -0.0298
      7 C13        18.9580    7.1500    4.8690 C.ar      1 KHD        -0.0652
      8 C15        17.1660    6.8730    8.8130 C.ar      1 KHD         0.1160
      9 C17        14.9630    7.7900    8.4340 C.ar      1 KHD        -0.0697
     10 C20        17.0900    7.2740   10.1380 C.ar      1 KHD        -0.0284
     11 C22        22.4980    7.1700    2.1450 C.ar      1 KHD         0.1061
     12 C24        24.5610    6.9960    0.8890 C.ar      1 KHD        -0.0824
     13 C26        23.7460    9.1670    1.5740 C.ar      1 KHD         0.0584
     14 O31        25.3810   10.7360    0.0490 O.2       1 KHD        -0.3849
     15 C29        24.6710   11.2610    0.8890 C.2       1 KHD         0.2031
     16 C30        24.6910   12.7590    1.1220 C.3       1 KHD         0.0403
     17 C32        23.8660   13.5020    0.1020 C.3       1 KHD        -0.0477
     18 N28        23.8510   10.5650    1.6580 N.am      1 KHD        -0.2362
     19 C27        22.6590    8.5550    2.1880 C.ar      1 KHD        -0.0085
     20 C23        23.4580    6.3820    1.5040 C.ar      1 KHD        -0.0429
     21 C25        24.7090    8.3860    0.9290 C.ar      1 KHD        -0.0513
     22 O21        21.4000    6.6260    2.7690 O.3       1 KHD        -0.2547
     23 N7         16.9130    4.9370    2.6470 N.pl3     1 KHD        -0.3234
     24 C2         19.2730    5.4950    0.0350 C.ar      1 KHD        -0.0146
     25 C1         20.3780    5.9930    0.7150 C.ar      1 KHD        -0.0149
     26 C9         18.7220    4.7560    5.0180 C.ar      1 KHD        -0.0652
     27 C11        18.5170    6.1150    7.0060 C.ar      1 KHD         0.1149
     28 C12        18.7430    7.2600    6.2420 C.ar      1 KHD        -0.0298
     29 O14        18.2960    6.2250    8.3540 O.3       1 KHD        -0.2586
     30 C16        16.0920    7.1360    7.9630 C.ar      1 KHD        -0.0284
     31 C18        14.8940    8.1880    9.7640 C.ar      1 KHD        -0.0723
     32 C19        15.9600    7.9310   10.6140 C.ar      1 KHD        -0.0697
     33 H1         18.3374    3.9692    6.9848 H         1 KHD         0.0550
     34 H2         19.1256    8.0427    4.2773 H         1 KHD         0.0574
     35 H3         14.1343    7.9907    7.7647 H         1 KHD         0.0590
     36 H4         17.9179    7.0739   10.8085 H         1 KHD         0.0552
     37 H5         25.3016    6.3893    0.3806 H         1 KHD         0.0554
     38 H6         25.7307   13.1133    1.0636 H         1 KHD         0.0505
     39 H7         24.2883   12.9676    2.1241 H         1 KHD         0.0505
     40 H8         23.9102   14.5812    0.3104 H         1 KHD         0.0254
     41 H9         22.8217   13.1607    0.1560 H         1 KHD         0.0254
     42 H10        24.2642   13.3064   -0.9046 H         1 KHD         0.0254
     43 H11        23.2851   11.0516    2.3235 H         1 KHD         0.2254
     44 H12        21.9266    9.1624    2.7073 H         1 KHD         0.0432
     45 H13        23.3517    5.3034    1.4817 H         1 KHD         0.0431
     46 H14        25.5670    8.8557    0.4617 H         1 KHD         0.0421
     47 H15        16.8197    5.0309    3.6685 H         1 KHD         0.1773
     48 H16        16.1255    4.5778    2.0887 H         1 KHD         0.1773
     49 H17        19.3106    5.3837   -1.0426 H         1 KHD         0.0737
     50 H18        21.2773    6.2660    0.1748 H         1 KHD         0.0536
     51 H19        18.7031    3.7814    4.5438 H         1 KHD         0.0574
     52 H20        18.7514    8.2350    6.7157 H         1 KHD         0.0550
     53 H21        16.1399    6.8266    6.9252 H         1 KHD         0.0552
     54 H22        14.0117    8.6967   10.1353 H         1 KHD         0.0528
     55 H23        15.9122    8.2428   11.6511 H         1 KHD         0.0590
@<TRIPOS>BOND
     1    2    1 ar 
     2    1   24 ar 
     3    3    2 ar 
     4    2   23 1  
     5    3    4 ar 
     6    5    3 1  
     7    4   22 1  
     8    4   25 ar 
     9    7    5 ar 
    10   26    5 ar 
    11    6   26 ar 
    12   27    6 ar 
    13   28    7 ar 
    14    8   10 ar 
    15   29    8 1  
    16    8   30 ar 
    17   30    9 ar 
    18    9   31 ar 
    19   10   32 ar 
    20   11   19 ar 
    21   11   20 ar 
    22   22   11 1  
    23   20   12 ar 
    24   12   21 ar 
    25   13   18 1  
    26   19   13 ar 
    27   13   21 ar 
    28   15   14 2  
    29   15   16 1  
    30   18   15 am 
    31   16   17 1  
    32   25   24 ar 
    33   27   28 ar 
    34   27   29 1  
    35   31   32 ar 
    36    6   33 1  
    37    7   34 1  
    38    9   35 1  
    39   10   36 1  
    40   12   37 1  
    41   16   38 1  
    42   16   39 1  
    43   17   40 1  
    44   17   41 1  
    45   17   42 1  
    46   18   43 1  
    47   19   44 1  
    48   20   45 1  
    49   21   46 1  
    50   23   47 1  
    51   23   48 1  
    52   24   49 1  
    53   25   50 1  
    54   26   51 1  
    55   28   52 1  
    56   30   53 1  
    57   31   54 1  
    58   32   55 1  
@<TRIPOS>SUBSTRUCTURE
     1 KHD         1

