### 
### Created by X-TOOL on Mon Aug  2 16:15:16 2021
### 

@<TRIPOS>MOLECULE
6nad_ligand
   72    76     1     0     0
SMALL
GAST_HUCK


@<TRIPOS>ATOM
      1 C10       115.5620  -24.4160    2.9120 C.ar      1 KHY         0.0229
      2 C13       118.0440  -24.3680    2.8070 C.ar      1 KHY         0.0858
      3 C17       121.6260  -27.1940    4.4480 C.3       1 KHY        -0.0013
      4 C20       119.9440  -26.4550    2.3610 C.3       1 KHY        -0.0300
      5 C21       122.0390  -29.3350    3.3720 C.3       1 KHY         0.3932
      6 C28       111.7370  -22.1850    3.9860 C.2       1 KHY         0.0106
      7 C01       118.9080  -23.2520   -0.5810 C.3       1 KHY         0.0657
      8 C03       117.9200  -23.9560    1.4760 C.ar      1 KHY         0.1826
      9 C05       115.5120  -24.0100    1.6040 C.ar      1 KHY         0.0398
     10 C06       114.2300  -23.8130    0.9290 C.ar      1 KHY        -0.0414
     11 C07       113.0670  -24.0340    1.6150 C.ar      1 KHY        -0.0660
     12 C08       113.1100  -24.4530    2.9900 C.ar      1 KHY        -0.0698
     13 C09       114.3430  -24.6490    3.6340 C.ar      1 KHY        -0.0467
     14 C11       116.8550  -24.6040    3.5590 C.ar      1 KHY         0.0785
     15 C14       119.4490  -24.5510    3.4260 C.3       1 KHY         0.0105
     16 C16       121.0360  -25.7900    4.2540 C.3       1 KHY        -0.0300
     17 C18       120.9980  -28.2640    3.7580 C.3       1 KHY         0.0640
     18 C19       120.1890  -27.9380    2.6060 C.3       1 KHY        -0.0013
     19 C25       111.7880  -24.7090    3.7320 C.3       1 KHY         0.0802
     20 C27       111.1920  -23.4260    4.1660 C.2       1 KHY         0.0438
     21 C30       109.8460  -21.9600    5.0340 C.2       1 KHY         0.1475
     22 C31       108.6360  -21.3270    5.7480 C.3       1 KHY         0.0285
     23 C33       109.0820  -24.2670    5.2380 C.3       1 KHY         0.0496
     24 C34       110.9100  -25.4680    2.7410 C.ar      1 KHY        -0.0269
     25 C35       109.9530  -24.8130    1.9560 C.ar      1 KHY        -0.0092
     26 C36       109.2000  -25.5620    1.0670 C.ar      1 KHY         0.0531
     27 C38       110.2900  -27.5390    1.6910 C.ar      1 KHY         0.1358
     28 C39       111.0800  -26.8500    2.5970 C.ar      1 KHY        -0.0059
     29 C40       110.4740  -29.0530    1.5360 C.3       1 KHY         0.3999
     30 F22       122.7440  -29.6610    4.4350 F         1 KHY        -0.1704
     31 F23       122.8930  -28.8700    2.3940 F         1 KHY        -0.1704
     32 F24       121.3890  -30.4310    2.9090 F         1 KHY        -0.1704
     33 F41       111.7510  -29.3130    1.1210 F         1 KHY        -0.2123
     34 F42       109.6080  -29.5180    0.6280 F         1 KHY        -0.2123
     35 F43       110.2670  -29.6740    2.7370 F         1 KHY        -0.2123
     36 N04       116.6860  -23.7800    0.8810 N.ar      1 KHY        -0.2716
     37 N15       119.7870  -25.7410    3.5680 N.4       1 KHY         0.2474
     38 N29       110.8970  -21.2960    4.5230 N.2       1 KHY        -0.2755
     39 N32       110.0150  -23.2450    4.8250 N.pl3     1 KHY        -0.2395
     40 N37       109.3690  -26.8980    0.9400 N.ar      1 KHY        -0.2495
     41 O02       119.0970  -23.7160    0.7220 O.3       1 KHY        -0.2952
     42 O26       112.0410  -25.5300    4.8640 O.3       1 KHY        -0.4641
     43 CL12      116.9460  -25.1200    5.2210 Cl        1 KHY        -0.0591
     44 H1        121.5849  -27.4243    5.5228 H         1 KHY         0.0322
     45 H2        122.6754  -27.1599    4.1202 H         1 KHY         0.0322
     46 H3        119.0308  -26.3402    1.7586 H         1 KHY         0.0815
     47 H4        120.8009  -26.0391    1.8108 H         1 KHY         0.0815
     48 H5        112.6830  -21.9621    3.4947 H         1 KHY         0.0896
     49 H6        119.8857  -23.1036   -1.0628 H         1 KHY         0.0589
     50 H7        118.3635  -22.2966   -0.5547 H         1 KHY         0.0589
     51 H8        118.3260  -23.9901   -1.1523 H         1 KHY         0.0589
     52 H9        114.2012  -23.4944   -0.1067 H         1 KHY         0.0628
     53 H10       112.1122  -23.8931    1.1215 H         1 KHY         0.0671
     54 H11       114.3739  -24.9736    4.6678 H         1 KHY         0.0812
     55 H12       119.4575  -24.0684    4.4144 H         1 KHY         0.0982
     56 H13       120.1828  -24.0584    2.7711 H         1 KHY         0.0982
     57 H14       121.7613  -25.1932    3.6814 H         1 KHY         0.0815
     58 H15       120.8950  -25.3408    5.2481 H         1 KHY         0.0815
     59 H16       120.3117  -28.7231    4.4848 H         1 KHY         0.0391
     60 H17       120.6894  -28.3480    1.7164 H         1 KHY         0.0322
     61 H18       119.2106  -28.4243    2.7333 H         1 KHY         0.0322
     62 H19       108.7599  -20.2345    5.7806 H         1 KHY         0.0535
     63 H20       108.5690  -21.7191    6.7735 H         1 KHY         0.0535
     64 H21       107.7154  -21.5754    5.1995 H         1 KHY         0.0535
     65 H22       109.4644  -25.2545    4.9403 H         1 KHY         0.0581
     66 H23       108.1085  -24.0907    4.7572 H         1 KHY         0.0581
     67 H24       108.9625  -24.2344    6.3310 H         1 KHY         0.0581
     68 H25       109.8047  -23.7427    2.0423 H         1 KHY         0.1023
     69 H26       108.4552  -25.0642    0.4566 H         1 KHY         0.0961
     70 H27       111.8216  -27.3754    3.1878 H         1 KHY         0.1061
     71 H28       119.0812  -26.2022    4.1205 H         1 KHY         0.2048
     72 H29       112.4233  -26.3516    4.5788 H         1 KHY         0.1800
@<TRIPOS>BOND
     1    1    9 ar 
     2   13    1 ar 
     3    1   14 ar 
     4    2    8 ar 
     5   14    2 ar 
     6    2   15 1  
     7   16    3 1  
     8    3   17 1  
     9    4   18 1  
    10   37    4 1  
    11   17    5 1  
    12    5   30 1  
    13    5   31 1  
    14    5   32 1  
    15    6   20 2  
    16   38    6 1  
    17   41    7 1  
    18   36    8 ar 
    19    8   41 1  
    20   10    9 ar 
    21    9   36 ar 
    22   11   10 ar 
    23   12   11 ar 
    24   12   13 ar 
    25   19   12 1  
    26   14   43 1  
    27   15   37 1  
    28   37   16 1  
    29   18   17 1  
    30   20   19 1  
    31   19   24 1  
    32   19   42 1  
    33   20   39 1  
    34   21   22 1  
    35   21   38 2  
    36   21   39 1  
    37   39   23 1  
    38   24   25 ar 
    39   24   28 ar 
    40   25   26 ar 
    41   26   40 ar 
    42   28   27 ar 
    43   27   29 1  
    44   27   40 ar 
    45   29   33 1  
    46   29   34 1  
    47   29   35 1  
    48    3   44 1  
    49    3   45 1  
    50    4   46 1  
    51    4   47 1  
    52    6   48 1  
    53    7   49 1  
    54    7   50 1  
    55    7   51 1  
    56   10   52 1  
    57   11   53 1  
    58   13   54 1  
    59   15   55 1  
    60   15   56 1  
    61   16   57 1  
    62   16   58 1  
    63   17   59 1  
    64   18   60 1  
    65   18   61 1  
    66   22   62 1  
    67   22   63 1  
    68   22   64 1  
    69   23   65 1  
    70   23   66 1  
    71   23   67 1  
    72   25   68 1  
    73   26   69 1  
    74   28   70 1  
    75   37   71 1  
    76   42   72 1  
@<TRIPOS>SUBSTRUCTURE
     1 KHY         1

