### 
### Created by X-TOOL on Mon Aug  2 16:15:16 2021
### 

@<TRIPOS>MOLECULE
6naf_ligand
   29    31     1     0     0
SMALL
GAST_HUCK


@<TRIPOS>ATOM
      1 N1         25.2430  -14.6420   37.3180 N.4       1 MOL         0.2229
      2 C10        25.2890  -14.6200   35.8660 C.3       1 MOL        -0.0127
      3 C7         23.8820  -14.3450   35.3210 C.3       1 MOL        -0.0041
      4 C1         23.9140  -14.2850   33.8020 C.3       1 MOL        -0.0352
      5 C8         26.2380  -13.5150   35.3870 C.3       1 MOL        -0.0041
      6 C5         26.2990  -13.5080   33.8660 C.3       1 MOL        -0.0352
      7 C6         24.9050  -13.1990   33.3230 C.3       1 MOL        -0.0469
      8 C4         26.7520  -14.8860   33.3360 C.3       1 MOL        -0.0469
      9 C9         25.7770  -15.9740   35.3350 C.3       1 MOL        -0.0041
     10 C3         25.7800  -15.9630   33.8130 C.3       1 MOL        -0.0352
     11 C2         24.3680  -15.6440   33.2720 C.3       1 MOL        -0.0469
     12 H1         24.9215  -13.7490   37.6575 H         1 MOL         0.1999
     13 H2         26.1651  -14.8272   37.6806 H         1 MOL         0.1999
     14 H3         24.6104  -15.3650   37.6232 H         1 MOL         0.1999
     15 H4         23.5200  -13.3842   35.7157 H         1 MOL         0.0325
     16 H5         23.2043  -15.1509   35.6393 H         1 MOL         0.0325
     17 H6         22.9077  -14.0543   33.4223 H         1 MOL         0.0303
     18 H7         27.2444  -13.6978   35.7915 H         1 MOL         0.0325
     19 H8         25.8716  -12.5404   35.7418 H         1 MOL         0.0325
     20 H9         27.0082  -12.7368   33.5310 H         1 MOL         0.0303
     21 H10        24.5776  -12.2155   33.6912 H         1 MOL         0.0271
     22 H11        24.9338  -13.1879   32.2234 H         1 MOL         0.0271
     23 H12        27.7606  -15.1100   33.7136 H         1 MOL         0.0271
     24 H13        26.7677  -14.8682   32.2363 H         1 MOL         0.0271
     25 H14        25.1064  -16.7692   35.6926 H         1 MOL         0.0325
     26 H15        26.7972  -16.1628   35.7003 H         1 MOL         0.0325
     27 H16        26.1011  -16.9464   33.4392 H         1 MOL         0.0303
     28 H17        24.3938  -15.6187   32.1726 H         1 MOL         0.0271
     29 H18        23.6639  -16.4210   33.6045 H         1 MOL         0.0271
@<TRIPOS>BOND
     1    1    2 1  
     2    2    3 1  
     3    2    5 1  
     4    2    9 1  
     5    3    4 1  
     6    4    7 1  
     7    4   11 1  
     8    5    6 1  
     9    6    7 1  
    10    6    8 1  
    11    8   10 1  
    12    9   10 1  
    13   10   11 1  
    14    1   12 1  
    15    1   13 1  
    16    1   14 1  
    17    3   15 1  
    18    3   16 1  
    19    4   17 1  
    20    5   18 1  
    21    5   19 1  
    22    6   20 1  
    23    7   21 1  
    24    7   22 1  
    25    8   23 1  
    26    8   24 1  
    27    9   25 1  
    28    9   26 1  
    29   10   27 1  
    30   11   28 1  
    31   11   29 1  
@<TRIPOS>SUBSTRUCTURE
     1 MOL         1

