### 
### Created by X-TOOL on Wed Jan  1 15:39:38 2020
### 

@<TRIPOS>MOLECULE
6nao_ligand
   47    50     1     0     0
SMALL
GAST_HUCK


@<TRIPOS>ATOM
      1 C10       -28.8360   20.6900  -20.0660 C.ar      1 KHM        -0.0467
      2 C13       -29.4730   15.5510  -23.5720 C.2       1 KHM         0.0685
      3 C17       -32.1210   18.5980  -26.3500 C.3       1 KHM        -0.0269
      4 C20       -29.4520   19.9650  -26.2760 C.3       1 KHM        -0.0366
      5 C21       -29.7170   18.7370  -27.1590 C.3       1 KHM         0.0208
      6 C22       -28.4140   17.9710  -27.4690 C.2       1 KHM         0.0332
      7 C26       -29.3160   14.2750  -23.0930 C.2       1 KHM         0.0012
      8 O01       -28.5380   15.4460  -19.0620 O.3       1 KHM        -0.2719
      9 C02       -28.8110   16.2450  -20.1870 C.2       1 KHM         0.2771
     10 C03       -28.8680   17.6170  -20.0800 C.2       1 KHM         0.0389
     11 C04       -29.1210   18.4040  -21.2040 C.2       1 KHM         0.0366
     12 C05       -29.2350   19.9390  -21.1720 C.ar      1 KHM         0.0033
     13 C06       -29.7810   20.6080  -22.2790 C.ar      1 KHM        -0.0467
     14 C07       -29.9250   21.9950  -22.2800 C.ar      1 KHM        -0.0564
     15 C08       -29.5460   22.7290  -21.1630 C.ar      1 KHM        -0.0575
     16 C09       -29.0090   22.0770  -20.0600 C.ar      1 KHM        -0.0564
     17 N11       -29.3540   17.7840  -22.3700 N.2       1 KHM        -0.2817
     18 C12       -29.3080   16.4060  -22.4700 C.2       1 KHM         0.1739
     19 C14       -29.8690   15.9700  -24.9890 C.2       1 KHM         0.1716
     20 N15       -30.3630   17.3230  -25.2220 N.am      1 KHM        -0.2877
     21 C16       -30.7920   17.8280  -26.5390 C.3       1 KHM         0.0543
     22 C18       -32.0520   20.1430  -26.4730 C.3       1 KHM        -0.0504
     23 C19       -30.7260   20.8020  -26.0340 C.3       1 KHM        -0.0498
     24 O23       -27.4110   18.1090  -26.7220 O.co2     1 KHM        -0.5663
     25 O24       -28.3360   17.2380  -28.5020 O.co2     1 KHM        -0.5663
     26 O25       -29.8100   15.1790  -25.8700 O.2       1 KHM        -0.4097
     27 N28       -29.0250   15.6660  -21.3910 N.pl3     1 KHM        -0.0958
     28 N27       -29.0220   14.3470  -21.7360 N.2       1 KHM        -0.2040
     29 H1        -28.3909   20.1968  -19.2095 H         1 KHM         0.0665
     30 H2        -32.5050   18.3599  -25.3471 H         1 KHM         0.0290
     31 H3        -32.8286   18.2340  -27.1095 H         1 KHM         0.0290
     32 H4        -28.7011   20.5995  -26.7695 H         1 KHM         0.0304
     33 H5        -29.0634   19.6245  -25.3049 H         1 KHM         0.0304
     34 H6        -30.1138   19.1024  -28.1177 H         1 KHM         0.0542
     35 H7        -29.4064   13.3603  -23.6770 H         1 KHM         0.0685
     36 H8        -28.4132   16.0017  -18.3017 H         1 KHM         0.2693
     37 H9        -28.7146   18.0907  -19.1115 H         1 KHM         0.0470
     38 H10       -30.0953   20.0379  -23.1458 H         1 KHM         0.0665
     39 H11       -30.3313   22.4989  -23.1495 H         1 KHM         0.0629
     40 H12       -29.6688   23.8060  -21.1521 H         1 KHM         0.0653
     41 H13       -28.7212   22.6498  -19.1858 H         1 KHM         0.0629
     42 H14       -30.4137   17.9455  -24.4410 H         1 KHM         0.1834
     43 H15       -30.9616   16.9757  -27.2134 H         1 KHM         0.0593
     44 H16       -32.8578   20.5655  -25.8548 H         1 KHM         0.0266
     45 H17       -32.2237   20.4040  -27.5277 H         1 KHM         0.0266
     46 H18       -30.6194   21.7476  -26.5858 H         1 KHM         0.0268
     47 H19       -30.7932   21.0119  -24.9563 H         1 KHM         0.0268
@<TRIPOS>BOND
     1   12    1 ar 
     2    1   16 ar 
     3    2    7 1  
     4    2   18 2  
     5   19    2 1  
     6   21    3 1  
     7    3   22 1  
     8    5    4 1  
     9    4   23 1  
    10    5    6 1  
    11   21    5 1  
    12    6   24 2  
    13    6   25 2  
    14    7   28 2  
    15    9    8 1  
    16    9   10 2  
    17   27    9 1  
    18   11   10 1  
    19   11   12 1  
    20   17   11 2  
    21   12   13 ar 
    22   13   14 ar 
    23   14   15 ar 
    24   16   15 ar 
    25   18   17 1  
    26   18   27 1  
    27   20   19 am 
    28   19   26 2  
    29   20   21 1  
    30   22   23 1  
    31   27   28 1  
    32    1   29 1  
    33    3   30 1  
    34    3   31 1  
    35    4   32 1  
    36    4   33 1  
    37    5   34 1  
    38    7   35 1  
    39    8   36 1  
    40   10   37 1  
    41   13   38 1  
    42   14   39 1  
    43   15   40 1  
    44   16   41 1  
    45   20   42 1  
    46   21   43 1  
    47   22   44 1  
    48   22   45 1  
    49   23   46 1  
    50   23   47 1  
@<TRIPOS>SUBSTRUCTURE
     1 KHM         1

