### 
### Created by X-TOOL on Mon Aug  2 16:15:16 2021
### 

@<TRIPOS>MOLECULE
6ncj_ligand
   83    88     1     0     0
SMALL
GAST_HUCK


@<TRIPOS>ATOM
      1 C13       -26.6380   14.8980  -17.2660 C.ar      1 KJJ        -0.0108
      2 C18       -25.7460   13.8100  -17.2370 C.ar      1 KJJ         0.0179
      3 C17       -24.3860   14.0480  -16.9460 C.ar      1 KJJ         0.0124
      4 C15       -24.8130   16.3730  -16.6770 C.ar      1 KJJ         0.0216
      5 C19       -26.2400   12.4060  -17.5610 C.3       1 KJJ         0.1435
      6 C20       -25.7270   12.0110  -18.9250 C.2       1 KJJ         0.0746
      7 C24       -26.4660   11.1860  -15.3740 C.3       1 KJJ         0.0661
      8 C34       -26.9810   21.2220  -17.3080 C.3       1 KJJ         0.0137
      9 C27       -26.2750   12.3180  -14.3540 C.3       1 KJJ        -0.0360
     10 C33       -27.4670   19.8230  -16.8780 C.3       1 KJJ        -0.0253
     11 C1        -27.8140   14.9600  -20.0770 C.3       1 KJJ        -0.0365
     12 C2        -28.6480   14.6620  -18.8420 C.ar      1 KJJ        -0.0468
     13 C3        -28.0910   14.6780  -17.5560 C.ar      1 KJJ        -0.0348
     14 C4        -28.8850   14.4040  -16.4330 C.ar      1 KJJ        -0.0413
     15 C5        -30.2330   14.1100  -16.5750 C.ar      1 KJJ         0.1478
     16 C6        -30.7990   14.0810  -17.8520 C.ar      1 KJJ         0.1215
     17 C7        -30.0150   14.3720  -18.9870 C.ar      1 KJJ        -0.0115
     18 C8        -30.6270   14.3540  -20.3880 C.3       1 KJJ        -0.0219
     19 C9        -32.1550   14.4300  -20.3200 C.3       1 KJJ        -0.0183
     20 C10       -32.6630   13.4480  -19.2550 C.3       1 KJJ         0.0697
     21 O11       -32.0940   13.8090  -17.9620 O.3       1 KJJ        -0.3220
     22 F12       -30.9620   13.8560  -15.4900 F         1 KJJ        -0.1971
     23 C14       -26.1780   16.2070  -17.0300 C.ar      1 KJJ         0.0213
     24 N16       -23.9890   15.3020  -16.6410 N.ar      1 KJJ        -0.3180
     25 O21       -25.4530   12.8660  -19.7570 O.co2     1 KJJ        -0.5641
     26 O22       -25.5490   10.7350  -19.2020 O.co2     1 KJJ        -0.5641
     27 O23       -25.7870   11.4170  -16.6230 O.3       1 KJJ        -0.3460
     28 C25       -27.9690   10.9030  -15.5370 C.3       1 KJJ        -0.0360
     29 C26       -25.7780    9.9310  -14.8150 C.3       1 KJJ        -0.0360
     30 C28       -23.2980   12.9800  -16.8610 C.3       1 KJJ        -0.0238
     31 C29       -24.2080   17.7530  -16.3910 C.3       1 KJJ         0.0286
     32 C30       -25.2700   18.8510  -16.1930 C.3       1 KJJ        -0.0210
     33 N31       -26.4480   18.7490  -17.0990 N.4       1 KJJ         0.2479
     34 C32       -27.1130   17.4100  -17.0660 C.3       1 KJJ         0.0009
     35 C35       -27.2160   21.6250  -18.7690 C.3       1 KJJ        -0.0303
     36 C36       -27.9940   22.3220  -17.6410 C.3       1 KJJ         0.0010
     37 C37       -29.4890   22.0670  -17.5160 C.ar      1 KJJ        -0.0395
     38 C38       -30.2570   21.6090  -18.6020 C.ar      1 KJJ        -0.0601
     39 C39       -31.6340   21.3800  -18.4560 C.ar      1 KJJ        -0.0686
     40 C40       -32.2630   21.6430  -17.2340 C.ar      1 KJJ        -0.0687
     41 C41       -31.4990   22.1060  -16.1510 C.ar      1 KJJ        -0.0686
     42 C42       -30.1180   22.3180  -16.2940 C.ar      1 KJJ        -0.0601
     43 H1        -27.3400   12.4134  -17.5660 H         1 KJJ         0.0913
     44 H2        -26.0423   21.4739  -16.7930 H         1 KJJ         0.0379
     45 H3        -26.8188   12.0741  -13.4295 H         1 KJJ         0.0257
     46 H4        -26.6652   13.2578  -14.7718 H         1 KJJ         0.0257
     47 H5        -25.2042   12.4330  -14.1300 H         1 KJJ         0.0257
     48 H6        -28.3686   19.5733  -17.4566 H         1 KJJ         0.0819
     49 H7        -27.7155   19.8535  -15.8069 H         1 KJJ         0.0819
     50 H8        -26.7752   15.1631  -19.7776 H         1 KJJ         0.0372
     51 H9        -28.2253   15.8397  -20.5937 H         1 KJJ         0.0372
     52 H10       -27.8378   14.0930  -20.7535 H         1 KJJ         0.0372
     53 H11       -28.4409   14.4222  -15.4443 H         1 KJJ         0.0509
     54 H12       -30.3354   13.4230  -20.8961 H         1 KJJ         0.0387
     55 H13       -30.2489   15.2162  -20.9569 H         1 KJJ         0.0387
     56 H14       -32.5804   14.1635  -21.2987 H         1 KJJ         0.0309
     57 H15       -32.4609   15.4524  -20.0533 H         1 KJJ         0.0309
     58 H16       -32.3554   12.4257  -19.5201 H         1 KJJ         0.0612
     59 H17       -33.7605   13.4984  -19.2013 H         1 KJJ         0.0612
     60 H18       -28.1124   10.0926  -16.2668 H         1 KJJ         0.0257
     61 H19       -28.4767   11.8114  -15.8934 H         1 KJJ         0.0257
     62 H20       -28.3928   10.6025  -14.5674 H         1 KJJ         0.0257
     63 H21       -25.8979    9.0999  -15.5256 H         1 KJJ         0.0257
     64 H22       -26.2363    9.6595  -13.8526 H         1 KJJ         0.0257
     65 H23       -24.7073   10.1351  -14.6667 H         1 KJJ         0.0257
     66 H24       -22.3359   13.4552  -16.6191 H         1 KJJ         0.0389
     67 H25       -23.2177   12.4606  -17.8273 H         1 KJJ         0.0389
     68 H26       -23.5566   12.2549  -16.0753 H         1 KJJ         0.0389
     69 H27       -23.5662   18.0360  -17.2383 H         1 KJJ         0.0477
     70 H28       -23.5999   17.6857  -15.4768 H         1 KJJ         0.0477
     71 H29       -24.7904   19.8262  -16.3633 H         1 KJJ         0.0838
     72 H30       -25.6304   18.7959  -15.1552 H         1 KJJ         0.0838
     73 H31       -26.0917   18.8738  -18.0336 H         1 KJJ         0.2049
     74 H32       -27.7486   17.3707  -16.1691 H         1 KJJ         0.0965
     75 H33       -27.7412   17.3227  -17.9648 H         1 KJJ         0.0965
     76 H34       -27.7356   20.9377  -19.4528 H         1 KJJ         0.0296
     77 H35       -26.4379   22.1727  -19.3209 H         1 KJJ         0.0296
     78 H36       -27.7742   23.3665  -17.3753 H         1 KJJ         0.0466
     79 H37       -29.7812   21.4314  -19.5597 H         1 KJJ         0.0557
     80 H38       -32.2109   20.9989  -19.2909 H         1 KJJ         0.0599
     81 H39       -33.3306   21.4906  -17.1246 H         1 KJJ         0.0559
     82 H40       -31.9780   22.3011  -15.1984 H         1 KJJ         0.0599
     83 H41       -29.5375   22.6780  -15.4523 H         1 KJJ         0.0557
@<TRIPOS>BOND
     1    1    2 ar 
     2    1   13 1  
     3   23    1 ar 
     4    3    2 ar 
     5    2    5 1  
     6   24    3 ar 
     7    3   30 1  
     8    4   23 ar 
     9    4   24 ar 
    10   31    4 1  
    11    5    6 1  
    12    5   27 1  
    13    6   25 ar 
    14    6   26 ar 
    15    7    9 1  
    16   27    7 1  
    17    7   28 1  
    18    7   29 1  
    19   10    8 1  
    20    8   35 1  
    21    8   36 1  
    22   33   10 1  
    23   12   11 1  
    24   13   12 ar 
    25   12   17 ar 
    26   13   14 ar 
    27   14   15 ar 
    28   15   16 ar 
    29   15   22 1  
    30   17   16 ar 
    31   16   21 1  
    32   17   18 1  
    33   18   19 1  
    34   19   20 1  
    35   21   20 1  
    36   23   34 1  
    37   32   31 1  
    38   32   33 1  
    39   33   34 1  
    40   35   36 1  
    41   36   37 1  
    42   37   38 ar 
    43   37   42 ar 
    44   38   39 ar 
    45   39   40 ar 
    46   40   41 ar 
    47   41   42 ar 
    48    5   43 1  
    49    8   44 1  
    50    9   45 1  
    51    9   46 1  
    52    9   47 1  
    53   10   48 1  
    54   10   49 1  
    55   11   50 1  
    56   11   51 1  
    57   11   52 1  
    58   14   53 1  
    59   18   54 1  
    60   18   55 1  
    61   19   56 1  
    62   19   57 1  
    63   20   58 1  
    64   20   59 1  
    65   28   60 1  
    66   28   61 1  
    67   28   62 1  
    68   29   63 1  
    69   29   64 1  
    70   29   65 1  
    71   30   66 1  
    72   30   67 1  
    73   30   68 1  
    74   31   69 1  
    75   31   70 1  
    76   32   71 1  
    77   32   72 1  
    78   33   73 1  
    79   34   74 1  
    80   34   75 1  
    81   35   76 1  
    82   35   77 1  
    83   36   78 1  
    84   38   79 1  
    85   39   80 1  
    86   40   81 1  
    87   41   82 1  
    88   42   83 1  
@<TRIPOS>SUBSTRUCTURE
     1 KJJ         1

