### 
### Created by X-TOOL on Mon Aug  2 16:15:16 2021
### 

@<TRIPOS>MOLECULE
6ncn_ligand
   28    29     1     0     0
SMALL
GAST_HUCK


@<TRIPOS>ATOM
      1 N1         -8.3220  -12.0660  -13.5190 N.pl3     1 KJM        -0.2833
      2 C4         -6.8470  -14.6790  -15.8900 C.3       1 KJM        -0.0692
      3 C5         -8.1210  -13.3160  -13.9310 C.cat     1 KJM         0.1801
      4 C6         -4.7760  -12.6110  -13.7870 C.ar      1 KJM        -0.0255
      5 C7         -5.4410  -14.8330  -13.1850 C.ar      1 KJM        -0.0395
      6 C8         -6.4160  -13.6450  -16.9420 C.3       1 KJM        -0.0673
      7 C10        -4.3270  -14.9510  -12.3690 C.ar      1 KJM        -0.0319
      8 C1         -6.8890  -13.5510  -14.8210 C.3       1 KJM         0.0331
      9 C11        -3.4220  -13.9060  -12.2680 C.ar      1 KJM        -0.0199
     10 C2         -5.6770  -13.6650  -13.8990 C.ar      1 KJM        -0.0441
     11 C3         -6.8110  -12.5180  -15.9820 C.3       1 KJM        -0.0692
     12 C9         -3.6570  -12.7530  -12.9890 C.ar      1 KJM         0.0693
     13 N2         -8.9220  -14.2390  -13.5960 N.pl3     1 KJM        -0.2833
     14 CL1        -2.4850  -11.4620  -12.9500 Cl        1 KJM        -0.0626
     15 H1         -9.1304  -11.8448  -12.9203 H         1 KJM         0.3169
     16 H2         -7.6691  -11.3202  -13.7990 H         1 KJM         0.3169
     17 H3         -6.0986  -15.4605  -15.6922 H         1 KJM         0.0172
     18 H4         -7.8219  -15.1473  -16.0904 H         1 KJM         0.0172
     19 H5         -4.9506  -11.6846  -14.3221 H         1 KJM         0.0856
     20 H6         -6.1357  -15.6611  -13.2670 H         1 KJM         0.0851
     21 H7         -7.0059  -13.6737  -17.8700 H         1 KJM         0.0250
     22 H8         -5.3442  -13.6723  -17.1878 H         1 KJM         0.0250
     23 H9         -4.1629  -15.8638  -11.8078 H         1 KJM         0.0698
     24 H10        -2.5464  -13.9928  -11.6348 H         1 KJM         0.0862
     25 H11        -7.7704  -12.0366  -16.2223 H         1 KJM         0.0172
     26 H12        -6.0374  -11.7475  -15.8486 H         1 KJM         0.0172
     27 H13        -8.7600  -15.2037  -13.9186 H         1 KJM         0.3169
     28 H14        -9.7350  -14.0246  -13.0011 H         1 KJM         0.3169
@<TRIPOS>BOND
     1    3    1 ar 
     2    2    6 1  
     3    8    2 1  
     4    8    3 1  
     5    3   13 ar 
     6   10    4 ar 
     7    4   12 ar 
     8    5    7 ar 
     9   10    5 ar 
    10    6   11 1  
    11    7    9 ar 
    12    8   10 1  
    13    8   11 1  
    14    9   12 ar 
    15   12   14 1  
    16    1   15 1  
    17    1   16 1  
    18    2   17 1  
    19    2   18 1  
    20    4   19 1  
    21    5   20 1  
    22    6   21 1  
    23    6   22 1  
    24    7   23 1  
    25    9   24 1  
    26   11   25 1  
    27   11   26 1  
    28   13   27 1  
    29   13   28 1  
@<TRIPOS>SUBSTRUCTURE
     1 KJM         1

