### 
### Created by X-TOOL on Mon Aug  2 16:15:16 2021
### 

@<TRIPOS>MOLECULE
6nco_ligand
   48    50     1     0     0
SMALL
GAST_HUCK


@<TRIPOS>ATOM
      1 C10         4.1010  -17.7440   10.1870 C.ar      1 KQP        -0.0391
      2 C13         3.9150  -13.0290   13.4450 C.ar      1 KQP         0.0749
      3 C15         4.8930  -12.8420   14.3780 C.ar      1 KQP        -0.0208
      4 C17         5.8040  -15.0570   13.8560 C.ar      1 KQP        -0.0225
      5 C20         6.9260  -13.4120   17.6070 C.3       1 KQP        -0.0673
      6 C21         7.0600  -12.3750   16.5060 C.3       1 KQP        -0.0690
      7 C22         8.1030  -13.3640   14.7880 C.cat     1 KQP         0.1803
      8 C01         3.1000  -21.0170   10.7740 C.3       1 KQP        -0.0640
      9 C02         4.2510  -20.2680   10.1190 C.3       1 KQP         0.0447
     10 C03         5.5510  -21.1120   10.1930 C.3       1 KQP        -0.0640
     11 C05         4.4240  -18.9250   10.8390 C.ar      1 KQP        -0.0288
     12 C06         4.8930  -18.8960   12.1700 C.ar      1 KQP        -0.0391
     13 C07         5.0320  -17.6580   12.8260 C.ar      1 KQP        -0.0254
     14 C08         4.7340  -16.4740   12.1620 C.ar      1 KQP         0.0171
     15 C09         4.2420  -16.5010   10.8450 C.ar      1 KQP        -0.0254
     16 C11         4.8420  -15.2230   12.9030 C.ar      1 KQP         0.0318
     17 C12         3.8470  -14.2220   12.6970 C.ar      1 KQP        -0.0041
     18 C16         5.8700  -13.8190   14.5830 C.ar      1 KQP        -0.0373
     19 C18         6.8310  -13.5570   15.6590 C.3       1 KQP         0.0345
     20 C19         7.4070  -14.4860   16.6380 C.3       1 KQP        -0.0690
     21 N23         8.4100  -12.2210   14.3410 N.pl3     1 KQP        -0.2832
     22 N24         8.9770  -14.4930   14.4980 N.pl3     1 KQP        -0.2832
     23 O04         3.8880  -20.0260    8.7240 O.3       1 KQP        -0.4291
     24 CL14        2.7190  -11.6750   13.2560 Cl        1 KQP        -0.0613
     25 H1          3.7380  -17.7746    9.1660 H         1 KQP         0.0838
     26 H2          4.9118  -11.9299   14.9635 H         1 KQP         0.0895
     27 H3          6.5119  -15.8514   14.0629 H         1 KQP         0.0915
     28 H4          5.8966  -13.5575   17.9664 H         1 KQP         0.0250
     29 H5          7.5941  -13.2473   18.4652 H         1 KQP         0.0250
     30 H6          8.0475  -11.8999   16.4110 H         1 KQP         0.0172
     31 H7          6.2771  -11.6029   16.4752 H         1 KQP         0.0172
     32 H8          2.9592  -21.9851   10.2711 H         1 KQP         0.0148
     33 H9          2.1790  -20.4218   10.6880 H         1 KQP         0.0148
     34 H10         3.3297  -21.1857   11.8364 H         1 KQP         0.0148
     35 H11         6.3743  -20.5597    9.7165 H         1 KQP         0.0148
     36 H12         5.3985  -22.0670    9.6689 H         1 KQP         0.0148
     37 H13         5.8018  -21.3076   11.2460 H         1 KQP         0.0148
     38 H14         5.1437  -19.8179   12.6821 H         1 KQP         0.0838
     39 H15         5.3733  -17.6282   13.8545 H         1 KQP         0.0700
     40 H16         3.9741  -15.5797   10.3405 H         1 KQP         0.0700
     41 H17         3.0515  -14.3761   11.9770 H         1 KQP         0.0909
     42 H18         6.9120  -15.4648   16.7209 H         1 KQP         0.0172
     43 H19         8.4961  -14.6295   16.5815 H         1 KQP         0.0172
     44 H20         9.2554  -12.1035   13.7644 H         1 KQP         0.3169
     45 H21         7.8146  -11.4079   14.5536 H         1 KQP         0.3169
     46 H22         9.8186  -14.3576   13.9198 H         1 KQP         0.3169
     47 H23         8.7533  -15.4266   14.8712 H         1 KQP         0.3169
     48 H24         3.0917  -19.5091    8.6903 H         1 KQP         0.1943
@<TRIPOS>BOND
     1    1   11 ar 
     2   15    1 ar 
     3    3    2 ar 
     4    2   17 ar 
     5    2   24 1  
     6   18    3 ar 
     7    4   16 ar 
     8   18    4 ar 
     9    6    5 1  
    10    5   20 1  
    11   19    6 1  
    12   19    7 1  
    13    7   21 ar 
    14    7   22 ar 
    15    9    8 1  
    16    9   10 1  
    17   11    9 1  
    18    9   23 1  
    19   12   11 ar 
    20   13   12 ar 
    21   14   13 ar 
    22   14   15 ar 
    23   16   14 1  
    24   16   17 ar 
    25   18   19 1  
    26   19   20 1  
    27    1   25 1  
    28    3   26 1  
    29    4   27 1  
    30    5   28 1  
    31    5   29 1  
    32    6   30 1  
    33    6   31 1  
    34    8   32 1  
    35    8   33 1  
    36    8   34 1  
    37   10   35 1  
    38   10   36 1  
    39   10   37 1  
    40   12   38 1  
    41   13   39 1  
    42   15   40 1  
    43   17   41 1  
    44   20   42 1  
    45   20   43 1  
    46   21   44 1  
    47   21   45 1  
    48   22   46 1  
    49   22   47 1  
    50   23   48 1  
@<TRIPOS>SUBSTRUCTURE
     1 KQP         1

