### 
### Created by X-TOOL on Mon Aug  2 16:15:16 2021
### 

@<TRIPOS>MOLECULE
6ndl_ligand
   65    68     1     0     0
SMALL
GAST_HUCK


@<TRIPOS>ATOM
      1 C10        48.2890   17.1210   22.1590 C.3       1 BQX        -0.0389
      2 C13        49.1720   16.6440   18.3030 C.3       1 BQX         0.0313
      3 C15        51.1180   17.8980   17.1630 C.2       1 BQX         0.2789
      4 C22        54.8040   20.0430   18.0570 C.3       1 BQX         0.0282
      5 C24        55.3880   22.0890   19.5200 C.3       1 BQX        -0.0238
      6 C28        52.2560   23.8460   22.2060 C.ar      1 BQX         0.1044
      7 C01        48.6770   14.2030   25.1070 C.2       1 BQX         0.2580
      8 C03        46.3950   14.5280   24.6010 C.3       1 BQX         0.0750
      9 C04        47.3680   14.8770   23.2510 C.3       1 BQX         0.0775
     10 C06        45.7640   15.7590   24.9570 C.3       1 BQX         0.0190
     11 C08        47.0320   16.4810   22.9570 C.3       1 BQX         0.0302
     12 C11        48.5530   16.3680   20.8480 C.3       1 BQX        -0.0502
     13 C12        49.1990   17.3290   19.7550 C.3       1 BQX        -0.0329
     14 C23        54.2640   21.3890   18.5930 C.3       1 BQX        -0.0336
     15 C25        55.0430   23.5080   19.8520 C.3       1 BQX         0.0607
     16 C27        52.8790   24.1070   20.9720 C.ar      1 BQX         0.1591
     17 C30        54.1990   22.8590   22.1490 C.2       1 BQX         0.1097
     18 C32        50.9820   25.3950   20.3170 C.ar      1 BQX         0.0533
     19 C34        50.9020   24.4400   22.4420 C.ar      1 BQX         0.1298
     20 N02        47.2310   14.1320   25.6050 N.am      1 BQX        -0.2671
     21 N05        48.6110   14.6960   23.5640 N.am      1 BQX        -0.2668
     22 N14        49.6760   17.5120   17.2860 N.am      1 BQX        -0.2719
     23 N16        51.5400   18.7870   16.0640 N.am      1 BQX        -0.1277
     24 N21        53.6880   19.2000   17.6910 N.am      1 BQX        -0.2315
     25 N26        54.0580   23.4860   20.9850 N.pl3     1 BQX        -0.2217
     26 N29        53.0980   23.0820   22.9040 N.2       1 BQX        -0.2958
     27 N31        52.2470   24.8570   20.0600 N.ar      1 BQX        -0.2714
     28 N33        50.3400   25.1740   21.5120 N.ar      1 BQX        -0.2698
     29 N35        50.2170   24.2130   23.6770 N.pl3     1 BQX        -0.3152
     30 O09        49.6570   13.9540   25.7340 O.2       1 BQX        -0.4008
     31 O17        51.9250   17.5130   17.8820 O.2       1 BQX        -0.3993
     32 O19        53.9950   18.0160   15.4020 O.2       1 BQX        -0.1309
     33 O20        53.5640   20.3230   15.3420 O.2       1 BQX        -0.1309
     34 S07        46.7970   17.0530   24.3340 S.3       1 BQX        -0.1527
     35 S18        53.2290   19.0950   16.0830 S.o2      1 BQX         0.1392
     36 H1         49.1853   17.0618   22.7939 H         1 BQX         0.0277
     37 H2         48.0705   18.1745   21.9303 H         1 BQX         0.0277
     38 H3         48.1338   16.3761   18.0572 H         1 BQX         0.0517
     39 H4         49.7892   15.7339   18.3294 H         1 BQX         0.0517
     40 H5         55.3998   19.5476   18.8377 H         1 BQX         0.0476
     41 H6         55.4345   20.2240   17.1740 H         1 BQX         0.0476
     42 H7         56.3487   22.0739   18.9845 H         1 BQX         0.0292
     43 H8         55.4809   21.5187   20.4560 H         1 BQX         0.0292
     44 H9         45.6511   13.7492   24.3774 H         1 BQX         0.0584
     45 H10        47.1041   14.2507   22.3861 H         1 BQX         0.0587
     46 H11        45.6746   15.8377   26.0505 H         1 BQX         0.0399
     47 H12        44.7643   15.8189   24.5021 H         1 BQX         0.0399
     48 H13        46.1245   16.5933   22.3456 H         1 BQX         0.0435
     49 H14        47.6013   15.9738   20.4622 H         1 BQX         0.0266
     50 H15        49.2424   15.5339   21.0453 H         1 BQX         0.0266
     51 H16        48.6294   18.2694   19.7204 H         1 BQX         0.0284
     52 H17        50.2416   17.5419   20.0336 H         1 BQX         0.0284
     53 H18        53.3571   21.2092   19.1890 H         1 BQX         0.0282
     54 H19        54.0222   22.0500   17.7476 H         1 BQX         0.0282
     55 H20        54.5949   23.9993   18.9758 H         1 BQX         0.0614
     56 H21        55.9494   24.0529   20.1544 H         1 BQX         0.0614
     57 H22        55.0604   22.2629   22.4466 H         1 BQX         0.1348
     58 H23        50.4978   25.9988   19.5580 H         1 BQX         0.0996
     59 H24        46.9450   13.8423   26.5184 H         1 BQX         0.1849
     60 H25        49.3947   14.8360   22.9589 H         1 BQX         0.1849
     61 H26        49.0297   17.8826   16.6189 H         1 BQX         0.1845
     62 H27        50.9128   19.1675   15.3843 H         1 BQX         0.2153
     63 H28        53.1944   18.6842   18.3912 H         1 BQX         0.1689
     64 H29        49.2858   24.6247   23.8326 H         1 BQX         0.1820
     65 H30        50.6550   23.6378   24.4107 H         1 BQX         0.1820
@<TRIPOS>BOND
     1    1   11 1  
     2   12    1 1  
     3    2   13 1  
     4   22    2 1  
     5    3   22 am 
     6   23    3 am 
     7    3   31 2  
     8    4   14 1  
     9   24    4 1  
    10   14    5 1  
    11    5   15 1  
    12   16    6 ar 
    13    6   19 ar 
    14   26    6 1  
    15    7   20 am 
    16   21    7 am 
    17    7   30 2  
    18    9    8 1  
    19   10    8 1  
    20    8   20 1  
    21   11    9 1  
    22    9   21 1  
    23   34   10 1  
    24   11   34 1  
    25   13   12 1  
    26   15   25 1  
    27   25   16 1  
    28   16   27 ar 
    29   25   17 1  
    30   17   26 2  
    31   27   18 ar 
    32   18   28 ar 
    33   19   28 ar 
    34   19   29 1  
    35   35   23 am 
    36   24   35 am 
    37   35   32 2  
    38   35   33 2  
    39    1   36 1  
    40    1   37 1  
    41    2   38 1  
    42    2   39 1  
    43    4   40 1  
    44    4   41 1  
    45    5   42 1  
    46    5   43 1  
    47    8   44 1  
    48    9   45 1  
    49   10   46 1  
    50   10   47 1  
    51   11   48 1  
    52   12   49 1  
    53   12   50 1  
    54   13   51 1  
    55   13   52 1  
    56   14   53 1  
    57   14   54 1  
    58   15   55 1  
    59   15   56 1  
    60   17   57 1  
    61   18   58 1  
    62   20   59 1  
    63   21   60 1  
    64   22   61 1  
    65   23   62 1  
    66   24   63 1  
    67   29   64 1  
    68   29   65 1  
@<TRIPOS>SUBSTRUCTURE
     1 BQX         1

