### 
### Created by X-TOOL on Mon Aug  2 16:15:17 2021
### 

@<TRIPOS>MOLECULE
6ne5_ligand
   88    94     1     0     0
SMALL
GAST_HUCK


@<TRIPOS>ATOM
      1 C10        -6.4570  -14.1070   93.4150 C.3       1 KJP        -0.0187
      2 C13        -5.4410  -15.4000   96.3720 C.2       1 KJP         0.1333
      3 C20        -6.2790  -18.2920   97.7780 C.3       1 KJP        -0.0340
      4 C21        -3.2350  -16.0900   88.0510 C.ar      1 KJP         0.0295
      5 C24        -2.1180  -13.8580   87.4370 C.3       1 KJP        -0.0345
      6 C26        -4.3040  -14.9220   90.5650 C.ar      1 KJP         0.0784
      7 C28        -4.0650  -16.9600   88.9570 C.ar      1 KJP        -0.0474
      8 C01        -3.7150  -16.8760   95.9800 C.ar      1 KJP         0.0670
      9 C02        -2.6650  -17.9980   96.0030 C.ar      1 KJP        -0.0058
     10 C03        -1.6430  -18.0750   94.9050 C.ar      1 KJP         0.0227
     11 C05        -1.6680  -17.0820   93.8030 C.ar      1 KJP        -0.0717
     12 C06        -2.7130  -15.9960   93.7940 C.ar      1 KJP        -0.0782
     13 C07        -3.7470  -15.9170   94.9190 C.ar      1 KJP        -0.0171
     14 C08        -4.8390  -15.0100   95.1710 C.2       1 KJP        -0.0215
     15 C09        -5.2440  -13.7850   94.2590 C.3       1 KJP        -0.0269
     16 C11        -6.0260  -14.9400   92.1700 C.3       1 KJP         0.0716
     17 C14        -6.6580  -14.9490   97.1990 C.2       1 KJP         0.2350
     18 C16        -5.8820  -16.2320   99.0770 C.3       1 KJP         0.0752
     19 C19        -5.2290  -17.1970   98.1320 C.3       1 KJP         0.0805
     20 C23        -2.9420  -14.6580   88.3850 C.ar      1 KJP        -0.0474
     21 C25        -3.4830  -14.0600   89.6550 C.ar      1 KJP        -0.0385
     22 C27        -4.6020  -16.3720   90.2340 C.ar      1 KJP        -0.0385
     23 C29        -4.3570  -18.4480   88.5950 C.3       1 KJP        -0.0345
     24 C31        -3.2880  -22.0910   98.8710 C.3       1 KJP         0.0567
     25 C32        -3.1800  -20.2820   97.1910 C.2       1 KJP         0.0755
     26 C33        -3.9290  -20.9940   96.0480 C.3       1 KJP         0.0007
     27 C34        -2.6450  -18.9980   97.1560 C.2       1 KJP         0.0028
     28 C35        -2.0650  -18.7430   98.3630 C.2       1 KJP         0.0052
     29 C36        -1.3550  -17.4340   98.7560 C.3       1 KJP        -0.0288
     30 C39       -11.5960  -15.0450  100.0560 C.3       1 KJP         0.0342
     31 C40        -9.3470  -15.4960   98.9900 C.2       1 KJP         0.0319
     32 C41        -8.0590  -14.9830   99.1540 C.2       1 KJP         0.0647
     33 C42        -8.1060  -14.0470  100.1200 C.ar      1 KJP         0.0084
     34 C43        -9.4420  -13.9450  100.5830 C.ar      1 KJP         0.0633
     35 C44        -9.8050  -12.9440  101.6930 C.ar      1 KJP        -0.0420
     36 C45        -8.7140  -12.0850  102.2630 C.ar      1 KJP        -0.0633
     37 C46        -7.3380  -12.2160  101.7620 C.ar      1 KJP        -0.0072
     38 C47        -6.2350  -11.3690  102.3350 C.2       1 KJP         0.0542
     39 C50        -6.9830  -13.1890  100.6870 C.ar      1 KJP        -0.0575
     40 N15        -6.8320  -15.3910   98.4220 N.am      1 KJP        -0.2388
     41 N18        -4.7470  -16.5900   96.8630 N.pl3     1 KJP        -0.2585
     42 N30        -2.9210  -20.7890   98.4080 N.pl3     1 KJP        -0.2130
     43 N37        -2.2250  -19.8360   99.1420 N.2       1 KJP        -0.2368
     44 N38       -10.1930  -14.8370   99.8850 N.pl3     1 KJP        -0.2852
     45 O12        -4.7920  -14.3870   91.7200 O.3       1 KJP        -0.3210
     46 O17        -7.5360  -14.2390   96.6620 O.2       1 KJP        -0.3861
     47 O48        -6.4220  -10.8460  103.4890 O.co2     1 KJP        -0.5638
     48 O49        -5.1450  -11.2210  101.6870 O.co2     1 KJP        -0.5638
     49 CL04       -0.4250  -19.3500   94.9210 Cl        1 KJP        -0.0860
     50 CL22       -2.5510  -16.6690   86.5400 Cl        1 KJP        -0.0937
     51 H1         -6.9298  -13.1711   93.0826 H         1 KJP         0.0309
     52 H2         -7.1745  -14.6881   94.0129 H         1 KJP         0.0309
     53 H3         -6.6508  -18.7563   98.7033 H         1 KJP         0.0259
     54 H4         -5.8092  -19.0598   97.1457 H         1 KJP         0.0259
     55 H5         -7.1185  -17.8332   97.2351 H         1 KJP         0.0259
     56 H6         -1.9977  -12.8367   87.8275 H         1 KJP         0.0390
     57 H7         -2.6185  -13.8197   86.4582 H         1 KJP         0.0390
     58 H8         -1.1291  -14.3266   87.3251 H         1 KJP         0.0390
     59 H9         -0.9358  -17.1375   93.0056 H         1 KJP         0.0503
     60 H10        -2.7321  -15.2699   92.9894 H         1 KJP         0.0491
     61 H11        -5.4724  -12.9209   94.9001 H         1 KJP         0.0380
     62 H12        -4.4016  -13.5375   93.5964 H         1 KJP         0.0380
     63 H13        -6.7872  -14.8635   91.3796 H         1 KJP         0.0615
     64 H14        -5.8904  -15.9957   92.4476 H         1 KJP         0.0615
     65 H15        -5.1043  -15.6004   99.5310 H         1 KJP         0.0598
     66 H16        -6.3975  -16.8017   99.8642 H         1 KJP         0.0598
     67 H17        -4.3704  -17.6571   98.6430 H         1 KJP         0.0651
     68 H18        -3.2826  -13.0249   89.9070 H         1 KJP         0.0424
     69 H19        -5.1950  -16.9778   90.9096 H         1 KJP         0.0424
     70 H20        -3.8844  -18.6905   87.6318 H         1 KJP         0.0390
     71 H21        -5.4437  -18.6004   88.5188 H         1 KJP         0.0390
     72 H22        -3.9489  -19.1030   89.3789 H         1 KJP         0.0390
     73 H23        -2.9418  -22.2229   99.9067 H         1 KJP         0.0591
     74 H24        -2.8224  -22.8532   98.2290 H         1 KJP         0.0591
     75 H25        -4.3821  -22.1986   98.8336 H         1 KJP         0.0591
     76 H26        -3.9855  -20.3269   95.1752 H         1 KJP         0.0453
     77 H27        -4.9459  -21.2506   96.3798 H         1 KJP         0.0453
     78 H28        -3.3903  -21.9127   95.7729 H         1 KJP         0.0453
     79 H29        -0.9851  -17.5133   99.7889 H         1 KJP         0.0379
     80 H30        -2.0642  -16.5962   98.6839 H         1 KJP         0.0379
     81 H31        -0.5085  -17.2575   98.0760 H         1 KJP         0.0379
     82 H32       -11.9385  -15.8251   99.3602 H         1 KJP         0.0553
     83 H33       -12.1335  -14.1078   99.8495 H         1 KJP         0.0553
     84 H34       -11.7963  -15.3624  101.0900 H         1 KJP         0.0553
     85 H35        -9.6408  -16.2741   98.2870 H         1 KJP         0.0659
     86 H36       -10.8235  -12.8610  102.0547 H         1 KJP         0.0544
     87 H37        -8.9406  -11.3682  103.0439 H         1 KJP         0.0559
     88 H38        -5.9657  -13.2812  100.3242 H         1 KJP         0.0591
@<TRIPOS>BOND
     1   15    1 1  
     2    1   16 1  
     3    2   14 2  
     4   17    2 1  
     5    2   41 1  
     6   19    3 1  
     7    7    4 ar 
     8   20    4 ar 
     9    4   50 1  
    10   20    5 1  
    11    6   21 ar 
    12    6   22 ar 
    13   45    6 1  
    14   22    7 ar 
    15    7   23 1  
    16    8    9 ar 
    17    8   13 ar 
    18   41    8 1  
    19    9   10 ar 
    20    9   27 1  
    21   10   11 ar 
    22   10   49 1  
    23   12   11 ar 
    24   13   12 ar 
    25   14   13 1  
    26   14   15 1  
    27   16   45 1  
    28   40   17 am 
    29   17   46 2  
    30   18   19 1  
    31   40   18 1  
    32   19   41 1  
    33   21   20 ar 
    34   42   24 1  
    35   25   26 1  
    36   27   25 2  
    37   25   42 1  
    38   27   28 1  
    39   28   29 1  
    40   28   43 2  
    41   44   30 1  
    42   32   31 2  
    43   31   44 1  
    44   32   33 1  
    45   32   40 1  
    46   33   34 ar 
    47   33   39 ar 
    48   34   35 ar 
    49   34   44 1  
    50   35   36 ar 
    51   36   37 ar 
    52   37   38 1  
    53   37   39 ar 
    54   38   47 ar 
    55   38   48 ar 
    56   42   43 1  
    57    1   51 1  
    58    1   52 1  
    59    3   53 1  
    60    3   54 1  
    61    3   55 1  
    62    5   56 1  
    63    5   57 1  
    64    5   58 1  
    65   11   59 1  
    66   12   60 1  
    67   15   61 1  
    68   15   62 1  
    69   16   63 1  
    70   16   64 1  
    71   18   65 1  
    72   18   66 1  
    73   19   67 1  
    74   21   68 1  
    75   22   69 1  
    76   23   70 1  
    77   23   71 1  
    78   23   72 1  
    79   24   73 1  
    80   24   74 1  
    81   24   75 1  
    82   26   76 1  
    83   26   77 1  
    84   26   78 1  
    85   29   79 1  
    86   29   80 1  
    87   29   81 1  
    88   30   82 1  
    89   30   83 1  
    90   30   84 1  
    91   31   85 1  
    92   35   86 1  
    93   36   87 1  
    94   39   88 1  
@<TRIPOS>SUBSTRUCTURE
     1 KJP         1

