### 
### Created by X-TOOL on Mon Aug  2 16:15:17 2021
### 

@<TRIPOS>MOLECULE
6nel_ligand
   35    37     1     0     0
SMALL
GAST_HUCK


@<TRIPOS>ATOM
      1 O01         9.0280   20.0220   -8.4380 O.2       1 KKV        -0.4061
      2 C02         9.5870   20.8440   -9.1790 C.2       1 KKV         0.2440
      3 C03         9.9930   22.1880   -8.8120 C.2       1 KKV         0.1497
      4 O04         9.7070   22.5310   -7.5430 O.3       1 KKV        -0.3342
      5 C05        10.5920   22.9900   -9.7130 C.2       1 KKV        -0.0373
      6 C06        10.8690   22.5700  -11.0590 C.2       1 KKV        -0.0033
      7 C07        11.5490   23.5220  -11.9650 C.ar      1 KKV        -0.0358
      8 C08        12.8360   23.3200  -12.4540 C.ar      1 KKV        -0.0612
      9 C09        13.4540   24.2750  -13.2660 C.ar      1 KKV        -0.0551
     10 C10        12.8280   25.4730  -13.6140 C.ar      1 KKV         0.0026
     11 C11        13.5260   26.5630  -14.5250 C.2       1 KKV         0.0579
     12 O12        12.7910   27.3910  -15.0770 O.co2     1 KKV        -0.5628
     13 O13        14.7610   26.5230  -14.5970 O.co2     1 KKV        -0.5628
     14 C14        11.5490   25.6720  -13.1010 C.ar      1 KKV        -0.0551
     15 C15        10.9220   24.7290  -12.2890 C.ar      1 KKV        -0.0612
     16 C16        10.5000   21.2840  -11.4540 C.2       1 KKV         0.0971
     17 C17        10.7140   20.6810  -12.7870 C.ar      1 KKV         0.0144
     18 C18        10.3070   21.3200  -13.9730 C.ar      1 KKV        -0.0502
     19 C19        10.5170   20.7220  -15.2130 C.ar      1 KKV        -0.0253
     20 C20        11.1230   19.4710  -15.2190 C.ar      1 KKV         0.1349
     21 F21        11.3290   18.8660  -16.4180 F         1 KKV        -0.1813
     22 C22        11.5290   18.7970  -14.0820 C.ar      1 KKV        -0.0253
     23 C23        11.3050   19.4260  -12.8660 C.ar      1 KKV        -0.0502
     24 N24         9.8770   20.4650  -10.4970 N.am      1 KKV        -0.2213
     25 H1         10.1489   21.9364   -6.9482 H         1 KKV         0.2458
     26 H2         10.8776   23.9961   -9.4096 H         1 KKV         0.0467
     27 H3         13.3667   22.4091  -12.2016 H         1 KKV         0.0567
     28 H4         14.4531   24.0787  -13.6380 H         1 KKV         0.0630
     29 H5         11.0243   26.5897  -13.3409 H         1 KKV         0.0630
     30 H6          9.9307   24.9348  -11.9017 H         1 KKV         0.0567
     31 H7          9.8243   22.2892  -13.9207 H         1 KKV         0.0631
     32 H8         10.2206   21.2110  -16.1339 H         1 KKV         0.0610
     33 H9         12.0004   17.8225  -14.1382 H         1 KKV         0.0610
     34 H10        11.5994   18.9241  -11.9514 H         1 KKV         0.0631
     35 H11         9.6207   19.5402  -10.7780 H         1 KKV         0.2476
@<TRIPOS>BOND
     1    1    2 2  
     2    2    3 1  
     3    2   24 am 
     4    3    4 1  
     5    3    5 2  
     6    5    6 1  
     7    6    7 1  
     8    6   16 2  
     9    7    8 ar 
    10    7   15 ar 
    11    8    9 ar 
    12    9   10 ar 
    13   10   11 1  
    14   10   14 ar 
    15   11   12 ar 
    16   11   13 ar 
    17   14   15 ar 
    18   16   17 1  
    19   16   24 1  
    20   17   18 ar 
    21   17   23 ar 
    22   18   19 ar 
    23   19   20 ar 
    24   20   21 1  
    25   20   22 ar 
    26   22   23 ar 
    27    4   25 1  
    28    5   26 1  
    29    8   27 1  
    30    9   28 1  
    31   14   29 1  
    32   15   30 1  
    33   18   31 1  
    34   19   32 1  
    35   22   33 1  
    36   23   34 1  
    37   24   35 1  
@<TRIPOS>SUBSTRUCTURE
     1 KKV         1

