### 
### Created by X-TOOL on Mon Aug  2 16:15:17 2021
### 

@<TRIPOS>MOLECULE
6nem_ligand
   47    51     1     0     0
SMALL
GAST_HUCK


@<TRIPOS>ATOM
      1 C10        10.3950   18.1910  -18.3230 C.ar      1 KKS        -0.0630
      2 C11         9.2110   18.7760  -18.0150 C.ar      1 KKS        -0.0570
      3 C12         9.0100   19.3560  -16.7260 C.ar      1 KKS        -0.0243
      4 O01         8.8410   19.4950   -9.0720 O.3       1 KKS        -0.3305
      5 C02         9.4980   20.1000  -10.0440 C.2       1 KKS         0.1528
      6 C03         9.8050   19.5840  -11.2750 C.2       1 KKS        -0.0321
      7 C04        10.5370   20.4150  -12.1890 C.2       1 KKS        -0.0149
      8 C05        10.8960   19.8910  -13.4920 C.3       1 KKS         0.0073
      9 C06         9.8070   19.9010  -14.5150 C.ar      1 KKS        -0.0250
     10 C07        10.0260   19.3340  -15.7680 C.ar      1 KKS        -0.0109
     11 C08        11.2420   18.7310  -16.1200 C.ar      1 KKS        -0.0548
     12 C09        11.4230   18.1760  -17.3640 C.ar      1 KKS        -0.0626
     13 C13         7.7510   19.9540  -16.4140 C.ar      1 KKS        -0.0632
     14 C14         7.5580   20.5160  -15.1890 C.ar      1 KKS        -0.0707
     15 C15         8.5980   20.4840  -14.2300 C.ar      1 KKS        -0.0595
     16 C16        10.8550   21.6900  -11.7760 C.2       1 KKS         0.0856
     17 C17        11.6010   22.7080  -12.5240 C.ar      1 KKS         0.0054
     18 C18        11.2200   23.0930  -13.8330 C.ar      1 KKS        -0.0518
     19 C19        11.9490   24.0790  -14.5040 C.ar      1 KKS        -0.0478
     20 C20        13.0630   24.6900  -13.8440 C.ar      1 KKS         0.0354
     21 C21        13.8060   25.7430  -14.5450 C.2       1 KKS         0.1814
     22 N22        13.5640   26.1540  -15.8630 N.pl3     1 KKS        -0.1526
     23 N23        14.4430   27.1790  -16.1550 N.2       1 KKS        -0.0653
     24 N24        15.1550   27.3790  -15.1060 N.2       1 KKS        -0.1402
     25 N25        14.7990   26.5390  -14.0730 N.2       1 KKS        -0.2103
     26 C26        13.4190   24.3090  -12.5150 C.ar      1 KKS        -0.0478
     27 C27        12.6890   23.3270  -11.8690 C.ar      1 KKS        -0.0518
     28 N28        10.5380   22.1860  -10.5390 N.am      1 KKS        -0.2341
     29 C29         9.8450   21.4530   -9.6000 C.2       1 KKS         0.2375
     30 O30         9.5850   21.9790   -8.5300 O.2       1 KKS        -0.4117
     31 H1         10.5470   17.7403  -19.2971 H         1 KKS         0.0615
     32 H2          8.4146   18.8033  -18.7499 H         1 KKS         0.0608
     33 H3          8.7678   20.0812   -8.3280 H         1 KKS         0.2483
     34 H4          9.5033   18.5749  -11.5520 H         1 KKS         0.0474
     35 H5         11.2255   18.8500  -13.3589 H         1 KKS         0.0557
     36 H6         11.7306   20.4930  -13.8805 H         1 KKS         0.0557
     37 H7         12.0516   18.7022  -15.3998 H         1 KKS         0.0627
     38 H8         12.3746   17.7188  -17.6101 H         1 KKS         0.0601
     39 H9          6.9537   19.9604  -17.1484 H         1 KKS         0.0542
     40 H10         6.6112   20.9862  -14.9492 H         1 KKS         0.0594
     41 H11         8.4369   20.9274  -13.2540 H         1 KKS         0.0531
     42 H12        10.3674   22.6253  -14.3119 H         1 KKS         0.0605
     43 H13        11.6749   24.3768  -15.5096 H         1 KKS         0.0648
     44 H14        12.8566   25.7616  -16.5005 H         1 KKS         0.2697
     45 H15        14.2549   24.7855  -12.0157 H         1 KKS         0.0648
     46 H16        12.9521   23.0324  -10.8595 H         1 KKS         0.0605
     47 H17        10.8207   23.1170  -10.3082 H         1 KKS         0.2373
@<TRIPOS>BOND
     1    2    1 ar 
     2    1   12 ar 
     3    3    2 ar 
     4   10    3 ar 
     5    3   13 ar 
     6    5    4 1  
     7    6    5 2  
     8    5   29 1  
     9    7    6 1  
    10    8    7 1  
    11    7   16 2  
    12    9    8 1  
    13    9   10 ar 
    14    9   15 ar 
    15   10   11 ar 
    16   11   12 ar 
    17   13   14 ar 
    18   14   15 ar 
    19   16   17 1  
    20   16   28 1  
    21   17   18 ar 
    22   17   27 ar 
    23   18   19 ar 
    24   19   20 ar 
    25   20   21 1  
    26   20   26 ar 
    27   21   22 1  
    28   21   25 2  
    29   22   23 1  
    30   23   24 2  
    31   24   25 1  
    32   26   27 ar 
    33   28   29 am 
    34   29   30 2  
    35    1   31 1  
    36    2   32 1  
    37    4   33 1  
    38    6   34 1  
    39    8   35 1  
    40    8   36 1  
    41   11   37 1  
    42   12   38 1  
    43   13   39 1  
    44   14   40 1  
    45   15   41 1  
    46   18   42 1  
    47   19   43 1  
    48   22   44 1  
    49   26   45 1  
    50   27   46 1  
    51   28   47 1  
@<TRIPOS>SUBSTRUCTURE
     1 KKS         1

