### 
### Created by X-TOOL on Mon Aug  2 16:15:17 2021
### 

@<TRIPOS>MOLECULE
6nfg_ligand
   32    34     1     0     0
SMALL
GAST_HUCK


@<TRIPOS>ATOM
      1 C10       -30.0670   20.7030  -23.9970 C.ar      1 KKP        -0.0492
      2 C13       -30.1200   15.6700  -24.8220 C.2       1 KKP         0.1295
      3 O01       -28.5580   15.9310  -20.5080 O.2       1 KKP        -0.4113
      4 C02       -29.1100   16.6130  -21.5970 C.2       1 KKP         0.2271
      5 C03       -29.2620   17.9740  -21.5620 C.2       1 KKP         0.0045
      6 C04       -29.7940   18.6280  -22.6580 C.2       1 KKP         0.0102
      7 C05       -29.9480   20.1300  -22.7350 C.ar      1 KKP        -0.0062
      8 C06       -29.9020   20.9140  -21.5890 C.ar      1 KKP        -0.0492
      9 C07       -30.0330   22.2800  -21.6910 C.ar      1 KKP        -0.0579
     10 C08       -30.1000   22.8360  -22.9380 C.ar      1 KKP        -0.0588
     11 C09       -30.1450   22.0720  -24.1020 C.ar      1 KKP        -0.0579
     12 N11       -30.0550   17.9470  -23.7650 N.2       1 KKP        -0.3083
     13 C12       -29.8880   16.5890  -23.7970 C.2       1 KKP         0.1811
     14 C14       -30.7090   16.0280  -26.1790 C.2       1 KKP         0.1875
     15 N15       -31.3560   17.3220  -26.3610 N.am      1 KKP        -0.2953
     16 C16       -31.9350   17.6570  -27.6350 C.3       1 KKP         0.0180
     17 O17       -30.6610   15.2240  -27.0520 O.2       1 KKP        -0.4059
     18 C18       -29.8050   14.4300  -24.3340 C.2       1 KKP         0.1004
     19 N20       -29.4330   15.9370  -22.7290 N.am      1 KKP        -0.0786
     20 N19       -29.3670   14.5930  -23.0280 N.pl3     1 KKP        -0.1550
     21 H1        -30.0978   20.0802  -24.8837 H         1 KKP         0.0652
     22 H2        -28.9661   18.5366  -20.6777 H         1 KKP         0.0410
     23 H3        -29.7635   20.4515  -20.6184 H         1 KKP         0.0652
     24 H4        -30.0819   22.9005  -20.8035 H         1 KKP         0.0626
     25 H5        -30.1189   23.9164  -23.0247 H         1 KKP         0.0642
     26 H6        -30.2397   22.5473  -25.0716 H         1 KKP         0.0626
     27 H7        -31.3972   17.9738  -25.6037 H         1 KKP         0.1826
     28 H8        -32.3742   18.6643  -27.5846 H         1 KKP         0.0482
     29 H9        -32.7192   16.9272  -27.8847 H         1 KKP         0.0482
     30 H10       -31.1543   17.6358  -28.4096 H         1 KKP         0.0482
     31 H11       -29.8840   13.4872  -24.8732 H         1 KKP         0.1429
     32 H12       -29.0496   13.8446  -22.3955 H         1 KKP         0.2445
@<TRIPOS>BOND
     1    7    1 ar 
     2    1   11 ar 
     3   13    2 1  
     4    2   14 1  
     5    2   18 2  
     6    4    3 2  
     7    5    4 1  
     8    4   19 am 
     9    6    5 2  
    10    6    7 1  
    11   12    6 1  
    12    7    8 ar 
    13    8    9 ar 
    14    9   10 ar 
    15   11   10 ar 
    16   12   13 2  
    17   13   19 am 
    18   14   15 am 
    19   14   17 2  
    20   15   16 1  
    21   18   20 1  
    22   19   20 1  
    23    1   21 1  
    24    5   22 1  
    25    8   23 1  
    26    9   24 1  
    27   10   25 1  
    28   11   26 1  
    29   15   27 1  
    30   16   28 1  
    31   16   29 1  
    32   16   30 1  
    33   18   31 1  
    34   20   32 1  
@<TRIPOS>SUBSTRUCTURE
     1 KKP         1

