### 
### Created by X-TOOL on Mon Aug  2 16:15:17 2021
### 

@<TRIPOS>MOLECULE
6nfh_ligand
   65    69     1     0     0
SMALL
GAST_HUCK


@<TRIPOS>ATOM
      1 C1         26.3480    6.0750   -8.0370 C.3       1 KLM        -0.0433
      2 C3         27.0120    8.3840   -8.0110 C.3       1 KLM        -0.0433
      3 C4         25.8510    7.4430   -6.0530 C.3       1 KLM        -0.0032
      4 C5         26.3240    6.7330   -4.7700 C.3       1 KLM         0.1219
      5 C8         25.3400    6.9830   -3.6120 C.3       1 KLM         0.0988
      6 O9         24.1510    6.2550   -3.9120 O.3       1 KLM        -0.3227
      7 C11        22.9090    6.5360   -1.8080 C.ar      1 KLM        -0.0424
      8 C12        21.7340    6.2820   -1.0850 C.ar      1 KLM        -0.0470
      9 C15        21.9910    5.4110   -3.7110 C.ar      1 KLM        -0.0424
     10 C17        19.1190    5.2860    0.2620 C.ar      1 KLM         0.1749
     11 C19        17.5480    4.7770    1.8920 C.ar      1 KLM         0.0197
     12 C24        20.2970    6.0810    4.7530 C.2       1 KLM         0.3450
     13 O25        21.1020    6.4230    5.5920 O.2       1 KLM        -0.3372
     14 C27        19.6430    5.7360    2.4930 C.ar      1 KLM         0.1939
     15 C30        22.8920    6.1250    2.5450 C.ar      1 KLM        -0.0382
     16 C31        23.9890    6.8400    2.1000 C.ar      1 KLM        -0.0506
     17 C32        25.3070    6.3300    1.6020 C.3       1 KLM        -0.0228
     18 C33        26.2590    7.5400    1.6350 C.3       1 KLM        -0.0373
     19 C34        25.3130    8.7500    1.5610 C.3       1 KLM        -0.0256
     20 C35        23.9850    8.2370    2.0860 C.ar      1 KLM        -0.0528
     21 C36        22.8570    8.9140    2.5090 C.ar      1 KLM        -0.0764
     22 C37        21.7540    8.1990    2.9390 C.ar      1 KLM        -0.0464
     23 N2         26.7810    7.1910   -7.1800 N.4       1 KLM         0.2328
     24 O7         26.4110    5.3200   -5.0040 O.3       1 KLM        -0.3839
     25 C10        23.0490    6.0750   -3.1130 C.ar      1 KLM         0.0794
     26 C13        20.6590    5.5940   -1.6830 C.ar      1 KLM         0.0517
     27 C14        20.8060    5.1670   -3.0090 C.ar      1 KLM        -0.0470
     28 N16        19.4220    5.3110   -1.0830 N.pl3     1 KLM        -0.2588
     29 N18        17.9220    4.8260    0.6010 N.ar      1 KLM        -0.2896
     30 C20        18.3950    5.2360    2.8910 C.ar      1 KLM         0.1356
     31 N21        18.0780    5.1510    4.2450 N.am      1 KLM        -0.2202
     32 C22        18.9930    5.4960    5.1880 C.2       1 KLM         0.3196
     33 O23        18.7160    5.4110    6.3770 O.2       1 KLM        -0.3507
     34 N26        20.5740    6.1910    3.4230 N.am      1 KLM        -0.1457
     35 N28        19.9360    5.7470    1.1930 N.ar      1 KLM        -0.2470
     36 C29        21.7660    6.7950    2.9750 C.ar      1 KLM         0.0853
     37 H1         27.0735    5.9357   -8.8520 H         1 KLM         0.0777
     38 H2         25.3587    6.3011   -8.4615 H         1 KLM         0.0777
     39 H3         26.2883    5.1544   -7.4379 H         1 KLM         0.0777
     40 H4         27.3356    9.2188   -7.3720 H         1 KLM         0.0777
     41 H5         26.0799    8.6574   -8.5272 H         1 KLM         0.0777
     42 H6         27.7931    8.1673   -8.7546 H         1 KLM         0.0777
     43 H7         25.7996    8.5257   -5.8657 H         1 KLM         0.0841
     44 H8         24.8519    7.0696   -6.3221 H         1 KLM         0.0841
     45 H9         27.3156    7.1192   -4.4916 H         1 KLM         0.0674
     46 H10        25.1155    8.0569   -3.5319 H         1 KLM         0.0637
     47 H11        25.7723    6.6271   -2.6652 H         1 KLM         0.0637
     48 H12        23.7142    7.0959   -1.3462 H         1 KLM         0.0515
     49 H13        21.6521    6.6177   -0.0576 H         1 KLM         0.0508
     50 H14        22.0825    5.0756   -4.7377 H         1 KLM         0.0515
     51 H15        16.5760    4.3753    2.1546 H         1 KLM         0.0699
     52 H16        22.9172    5.0413    2.5558 H         1 KLM         0.0452
     53 H17        25.2076    5.9477    0.5754 H         1 KLM         0.0411
     54 H18        25.6811    5.5293    2.2569 H         1 KLM         0.0411
     55 H19        26.9436    7.5241    0.7742 H         1 KLM         0.0304
     56 H20        26.8425    7.5548    2.5674 H         1 KLM         0.0304
     57 H21        25.2105    9.0987    0.5228 H         1 KLM         0.0390
     58 H22        25.6861    9.5725    2.1889 H         1 KLM         0.0390
     59 H23        22.8368    9.9978    2.5038 H         1 KLM         0.0508
     60 H24        20.8641    8.7318    3.2540 H         1 KLM         0.0460
     61 H25        27.6660    6.9323   -6.7727 H         1 KLM         0.2029
     62 H26        25.5520    4.9844   -5.2320 H         1 KLM         0.2101
     63 H27        19.9926    4.6418   -3.4964 H         1 KLM         0.0508
     64 H28        18.6463    5.0958   -1.7255 H         1 KLM         0.2107
     65 H29        17.1716    4.8342    4.5244 H         1 KLM         0.2251
@<TRIPOS>BOND
     1   23    1 1  
     2   23    2 1  
     3    4    3 1  
     4    3   23 1  
     5    5    4 1  
     6    4   24 1  
     7    6    5 1  
     8   25    6 1  
     9    8    7 ar 
    10    7   25 ar 
    11   26    8 ar 
    12    9   25 ar 
    13   27    9 ar 
    14   10   28 1  
    15   10   29 ar 
    16   35   10 ar 
    17   11   29 ar 
    18   30   11 ar 
    19   12   13 2  
    20   12   32 1  
    21   34   12 am 
    22   14   30 ar 
    23   34   14 1  
    24   14   35 ar 
    25   15   16 ar 
    26   36   15 ar 
    27   16   17 1  
    28   16   20 ar 
    29   17   18 1  
    30   19   18 1  
    31   20   19 1  
    32   21   20 ar 
    33   22   21 ar 
    34   36   22 ar 
    35   26   27 ar 
    36   28   26 1  
    37   30   31 1  
    38   32   31 am 
    39   32   33 2  
    40   34   36 1  
    41    1   37 1  
    42    1   38 1  
    43    1   39 1  
    44    2   40 1  
    45    2   41 1  
    46    2   42 1  
    47    3   43 1  
    48    3   44 1  
    49    4   45 1  
    50    5   46 1  
    51    5   47 1  
    52    7   48 1  
    53    8   49 1  
    54    9   50 1  
    55   11   51 1  
    56   15   52 1  
    57   17   53 1  
    58   17   54 1  
    59   18   55 1  
    60   18   56 1  
    61   19   57 1  
    62   19   58 1  
    63   21   59 1  
    64   22   60 1  
    65   23   61 1  
    66   24   62 1  
    67   27   63 1  
    68   28   64 1  
    69   31   65 1  
@<TRIPOS>SUBSTRUCTURE
     1 KLM         1

