### 
### Created by X-TOOL on Mon Aug  2 16:15:17 2021
### 

@<TRIPOS>MOLECULE
6nfi_ligand
   53    56     1     0     0
SMALL
GAST_HUCK


@<TRIPOS>ATOM
      1 C1        -23.0150   -7.0400  -19.4290 C.3       1 KLP         0.0786
      2 C6        -19.9120   -6.0960  -20.8210 C.ar      1 KLP         0.0876
      3 C7        -19.6970   -6.1020  -19.4280 C.ar      1 KLP        -0.0499
      4 C8        -18.4550   -5.7780  -18.9080 C.ar      1 KLP        -0.0587
      5 C11       -16.2150   -5.1370  -18.9880 C.2       1 KLP        -0.0021
      6 N13       -14.3600   -4.6020  -17.8770 N.pl3     1 KLP        -0.2178
      7 C16       -16.2000   -4.8800  -14.7330 C.3       1 KLP         0.0553
      8 C17       -15.7590   -4.6310  -13.3140 C.ar      1 KLP        -0.0184
      9 C18       -15.5980   -3.3190  -12.8530 C.ar      1 KLP        -0.0487
     10 C19       -15.8470   -2.1030  -13.7160 C.3       1 KLP        -0.0352
     11 C21       -14.9540   -4.1520  -10.6910 C.ar      1 KLP        -0.0820
     12 C23       -15.5070   -5.7030  -12.4530 C.ar      1 KLP        -0.0487
     13 C24       -15.6500   -7.1490  -12.8690 C.3       1 KLP        -0.0352
     14 C27       -18.8590   -5.7390  -21.6820 C.ar      1 KLP         0.1021
     15 O28       -19.0280   -5.7370  -23.0380 O.3       1 KLP        -0.3327
     16 S2        -22.1030   -7.6760  -20.8610 S.o2      1 KLP         0.0560
     17 O3        -21.1890   -8.6960  -20.4750 O.2       1 KLP        -0.1503
     18 O4        -23.0060   -7.8850  -21.9370 O.2       1 KLP        -0.1503
     19 N5        -21.1630   -6.4090  -21.3790 N.am      1 KLP        -0.1944
     20 C9        -17.8940   -5.6930  -17.5070 C.3       1 KLP        -0.0133
     21 C10       -16.4540   -5.2490  -17.6640 C.2       1 KLP        -0.0040
     22 N12       -14.9390   -4.7310  -19.1320 N.2       1 KLP        -0.2592
     23 C14       -15.2620   -4.9100  -16.9940 C.2       1 KLP         0.1553
     24 N15       -15.0360   -4.8810  -15.6200 N.pl3     1 KLP        -0.2911
     25 C20       -15.2020   -3.0920  -11.5480 C.ar      1 KLP        -0.0739
     26 C22       -15.1080   -5.4470  -11.1530 C.ar      1 KLP        -0.0739
     27 C25       -17.4090   -5.4520  -19.7720 C.ar      1 KLP        -0.0448
     28 C26       -17.6140   -5.4270  -21.1530 C.ar      1 KLP        -0.0480
     29 C29       -18.6350   -4.5840  -23.7920 C.3       1 KLP         0.0545
     30 H1        -22.3183   -6.8770  -18.5935 H         1 KLP         0.0487
     31 H2        -23.7823   -7.7691  -19.1296 H         1 KLP         0.0487
     32 H3        -23.4977   -6.0880  -19.6950 H         1 KLP         0.0487
     33 H4        -20.5094   -6.3620  -18.7591 H         1 KLP         0.0387
     34 H5        -13.3906   -4.3142  -17.6812 H         1 KLP         0.2471
     35 H6        -16.8956   -4.0866  -15.0440 H         1 KLP         0.0647
     36 H7        -16.7056   -5.8551  -14.7927 H         1 KLP         0.0647
     37 H8        -15.6533   -1.1921  -13.1306 H         1 KLP         0.0374
     38 H9        -16.8925   -2.1038  -14.0578 H         1 KLP         0.0374
     39 H10       -15.1763   -2.1283  -14.5875 H         1 KLP         0.0374
     40 H11       -14.6425   -3.9686   -9.6690 H         1 KLP         0.0525
     41 H12       -15.3972   -7.8014  -12.0202 H         1 KLP         0.0374
     42 H13       -14.9697   -7.3583  -13.7076 H         1 KLP         0.0374
     43 H14       -16.6872   -7.3397  -13.1818 H         1 KLP         0.0374
     44 H15       -21.5048   -5.8394  -22.1265 H         1 KLP         0.2134
     45 H16       -17.9401   -6.6762  -17.0158 H         1 KLP         0.0484
     46 H17       -18.4582   -4.9593  -16.9125 H         1 KLP         0.0484
     47 H18       -14.0789   -4.8609  -15.2398 H         1 KLP         0.1816
     48 H19       -15.0844   -2.0749  -11.1919 H         1 KLP         0.0482
     49 H20       -14.9123   -6.2770  -10.4837 H         1 KLP         0.0482
     50 H21       -16.7973   -5.1628  -21.8150 H         1 KLP         0.0464
     51 H22       -18.8412   -4.7558  -24.8588 H         1 KLP         0.0569
     52 H23       -17.5592   -4.4029  -23.6511 H         1 KLP         0.0569
     53 H24       -19.2028   -3.7081  -23.4452 H         1 KLP         0.0569
@<TRIPOS>BOND
     1   16    1 1  
     2    3    2 ar 
     3    2   14 ar 
     4    2   19 1  
     5    4    3 ar 
     6   20    4 1  
     7    4   27 ar 
     8   21    5 1  
     9    5   22 2  
    10    5   27 1  
    11    6   22 1  
    12   23    6 1  
    13    7    8 1  
    14   24    7 1  
    15    8    9 ar 
    16    8   12 ar 
    17    9   10 1  
    18    9   25 ar 
    19   25   11 ar 
    20   26   11 ar 
    21   12   13 1  
    22   12   26 ar 
    23   14   15 1  
    24   14   28 ar 
    25   15   29 1  
    26   16   17 2  
    27   16   18 2  
    28   19   16 am 
    29   21   20 1  
    30   23   21 2  
    31   23   24 1  
    32   27   28 ar 
    33    1   30 1  
    34    1   31 1  
    35    1   32 1  
    36    3   33 1  
    37    6   34 1  
    38    7   35 1  
    39    7   36 1  
    40   10   37 1  
    41   10   38 1  
    42   10   39 1  
    43   11   40 1  
    44   13   41 1  
    45   13   42 1  
    46   13   43 1  
    47   19   44 1  
    48   20   45 1  
    49   20   46 1  
    50   24   47 1  
    51   25   48 1  
    52   26   49 1  
    53   28   50 1  
    54   29   51 1  
    55   29   52 1  
    56   29   53 1  
@<TRIPOS>SUBSTRUCTURE
     1 KLP         1

