### 
### Created by X-TOOL on Mon Aug  2 16:15:17 2021
### 

@<TRIPOS>MOLECULE
6nfn_ligand
   40    42     1     0     0
SMALL
GAST_HUCK


@<TRIPOS>ATOM
      1 C1         74.0490   44.7780   86.2430 C.3       1 BCG        -0.0035
      2 C2         74.0860   46.2800   85.9980 C.3       1 BCG         0.0851
      3 C3         73.2920   46.6340   84.7370 C.3       1 BCG         0.1109
      4 C4         73.6520   45.6890   83.6000 C.3       1 BCG         0.0230
      5 C5         73.6490   44.2350   84.0630 C.3       1 BCG        -0.0177
      6 C6         72.3470   43.8400   84.7890 C.3       1 BCG        -0.0044
      7 C7         72.6510   44.1100   86.2820 C.3       1 BCG        -0.0026
      8 C8         72.9430   48.9790   85.0100 C.2       1 BCG         0.2636
      9 C9         73.2060   50.3100   84.4100 C.ar      1 BCG         0.0620
     10 C10        72.6970   51.4590   84.9980 C.ar      1 BCG        -0.0406
     11 C11        72.9490   52.6980   84.4350 C.ar      1 BCG        -0.0559
     12 C12        73.7020   52.7970   83.2870 C.ar      1 BCG        -0.0573
     13 C13        74.2080   51.6620   82.6950 C.ar      1 BCG        -0.0559
     14 C14        73.9610   50.4190   83.2520 C.ar      1 BCG        -0.0406
     15 C15        75.5240   46.7840   85.9400 C.2       1 BCG         0.0461
     16 C16        74.9760   42.6940   85.4190 C.3       1 BCG        -0.0425
     17 N1         74.6850   44.0950   85.1010 N.4       1 BCG         0.2389
     18 O1         73.5750   47.9950   84.3450 O.3       1 BCG        -0.2717
     19 O2         72.2280   48.7940   85.9610 O.2       1 BCG        -0.3568
     20 O3         75.7860   47.8080   86.5210 O.co2     1 BCG        -0.5684
     21 O4         76.3500   46.1370   85.3410 O.co2     1 BCG        -0.5684
     22 H1         74.5836   44.5681   87.1811 H         1 BCG         0.0874
     23 H2         73.5959   46.7743   86.8497 H         1 BCG         0.0551
     24 H3         72.2178   46.5388   84.9539 H         1 BCG         0.0673
     25 H4         74.6549   45.9437   83.2267 H         1 BCG         0.0350
     26 H5         72.9179   45.8081   82.7895 H         1 BCG         0.0350
     27 H6         73.8350   43.5685   83.2079 H         1 BCG         0.0852
     28 H7         72.1145   42.7776   84.6237 H         1 BCG         0.0322
     29 H8         71.5047   44.4577   84.4441 H         1 BCG         0.0322
     30 H9         71.9027   44.7863   86.7209 H         1 BCG         0.0323
     31 H10        72.6780   43.1715   86.8551 H         1 BCG         0.0323
     32 H11        72.1007   51.3861   85.9003 H         1 BCG         0.0672
     33 H12        72.5521   53.5933   84.8996 H         1 BCG         0.0630
     34 H13        73.8966   53.7693   82.8489 H         1 BCG         0.0654
     35 H14        74.8009   51.7417   81.7910 H         1 BCG         0.0630
     36 H15        74.3593   49.5275   82.7812 H         1 BCG         0.0672
     37 H16        75.7530   42.6482   86.1963 H         1 BCG         0.0778
     38 H17        75.3316   42.1789   84.5145 H         1 BCG         0.0778
     39 H18        74.0619   42.2035   85.7850 H         1 BCG         0.0778
     40 H19        75.5381   44.5561   84.8260 H         1 BCG         0.2037
@<TRIPOS>BOND
     1    2    1 1  
     2    1    7 1  
     3    1   17 1  
     4    3    2 1  
     5    2   15 1  
     6    3    4 1  
     7   18    3 1  
     8    4    5 1  
     9    5    6 1  
    10    5   17 1  
    11    6    7 1  
    12    8    9 1  
    13    8   18 1  
    14    8   19 2  
    15    9   10 ar 
    16    9   14 ar 
    17   10   11 ar 
    18   11   12 ar 
    19   12   13 ar 
    20   13   14 ar 
    21   15   20 ar 
    22   15   21 ar 
    23   17   16 1  
    24    1   22 1  
    25    2   23 1  
    26    3   24 1  
    27    4   25 1  
    28    4   26 1  
    29    5   27 1  
    30    6   28 1  
    31    6   29 1  
    32    7   30 1  
    33    7   31 1  
    34   10   32 1  
    35   11   33 1  
    36   12   34 1  
    37   13   35 1  
    38   14   36 1  
    39   16   37 1  
    40   16   38 1  
    41   16   39 1  
    42   17   40 1  
@<TRIPOS>SUBSTRUCTURE
     1 BCG         1

