### 
### Created by X-TOOL on Mon Aug  2 16:15:18 2021
### 

@<TRIPOS>MOLECULE
6nfo_ligand
   39    41     1     0     0
SMALL
GAST_HUCK


@<TRIPOS>ATOM
      1 C10       -28.5190   20.4580  -20.3700 C.ar      1 KKM        -0.0492
      2 C13       -29.3980   15.6020  -24.1640 C.2       1 KKM         0.1295
      3 C17       -29.5020   19.3930  -27.3250 C.3       1 KKM         0.0667
      4 C21       -29.2200   14.2910  -23.8070 C.2       1 KKM         0.1004
      5 O01       -28.2120   15.1780  -19.7640 O.2       1 KKM        -0.4113
      6 C02       -28.5900   16.0590  -20.7750 C.2       1 KKM         0.2271
      7 C03       -28.6020   17.4080  -20.5570 C.2       1 KKM         0.0045
      8 C04       -28.9080   18.2600  -21.6110 C.2       1 KKM         0.0102
      9 C05       -29.0060   19.7780  -21.4820 C.ar      1 KKM        -0.0062
     10 C06       -29.5700   20.5080  -22.5360 C.ar      1 KKM        -0.0492
     11 C07       -29.7120   21.8920  -22.4600 C.ar      1 KKM        -0.0579
     12 C08       -29.2790   22.5630  -21.3290 C.ar      1 KKM        -0.0588
     13 C09       -28.6550   21.8510  -20.3070 C.ar      1 KKM        -0.0579
     14 N11       -29.2210   17.7420  -22.7990 N.2       1 KKM        -0.3083
     15 C12       -29.1930   16.3810  -23.0090 C.2       1 KKM         0.1811
     16 C14       -29.8350   16.1300  -25.5250 C.2       1 KKM         0.1881
     17 N15       -29.8590   17.5610  -25.7760 N.am      1 KKM        -0.2873
     18 C16       -30.2930   18.1050  -27.0440 C.3       1 KKM         0.0607
     19 O18       -29.9250   20.4500  -26.4920 O.3       1 KKM        -0.3928
     20 C19       -31.8220   18.2990  -26.9860 C.3       1 KKM        -0.0400
     21 O20       -30.1720   15.3630  -26.3560 O.2       1 KKM        -0.4059
     22 N23       -28.9100   15.5640  -21.9940 N.am      1 KKM        -0.0786
     23 N22       -28.9000   14.2640  -22.4560 N.pl3     1 KKM        -0.1550
     24 H1        -28.0402   19.9165  -19.5622 H         1 KKM         0.0652
     25 H2        -29.6524   19.6832  -28.3753 H         1 KKM         0.0580
     26 H3        -28.4334   19.2027  -27.1465 H         1 KKM         0.0580
     27 H4        -29.3127   13.4272  -24.4636 H         1 KKM         0.1429
     28 H5        -28.3748   17.8097  -19.5706 H         1 KKM         0.0410
     29 H6        -29.9019   19.9869  -23.4267 H         1 KKM         0.0652
     30 H7        -30.1589   22.4401  -23.2815 H         1 KKM         0.0626
     31 H8        -29.4243   23.6335  -21.2395 H         1 KKM         0.0642
     32 H9        -28.2674   22.3848  -19.4468 H         1 KKM         0.0626
     33 H10       -29.5675   18.1867  -25.0524 H         1 KKM         0.1833
     34 H11       -30.0685   17.3850  -27.8447 H         1 KKM         0.0574
     35 H12       -29.4188   21.2293  -26.6894 H         1 KKM         0.2095
     36 H13       -32.3067   17.3329  -26.7818 H         1 KKM         0.0252
     37 H14       -32.1786   18.6917  -27.9496 H         1 KKM         0.0252
     38 H15       -32.0712   19.0107  -26.1851 H         1 KKM         0.0252
     39 H16       -28.6922   13.4234  -21.8983 H         1 KKM         0.2445
@<TRIPOS>BOND
     1    9    1 ar 
     2    1   13 ar 
     3    2    4 2  
     4    2   15 1  
     5   16    2 1  
     6   18    3 1  
     7    3   19 1  
     8    4   23 1  
     9    6    5 2  
    10    6    7 1  
    11   22    6 am 
    12    8    7 2  
    13    8    9 1  
    14   14    8 1  
    15    9   10 ar 
    16   10   11 ar 
    17   11   12 ar 
    18   13   12 ar 
    19   15   14 2  
    20   15   22 am 
    21   17   16 am 
    22   16   21 2  
    23   17   18 1  
    24   18   20 1  
    25   22   23 1  
    26    1   24 1  
    27    3   25 1  
    28    3   26 1  
    29    4   27 1  
    30    7   28 1  
    31   10   29 1  
    32   11   30 1  
    33   12   31 1  
    34   13   32 1  
    35   17   33 1  
    36   18   34 1  
    37   19   35 1  
    38   20   36 1  
    39   20   37 1  
    40   20   38 1  
    41   23   39 1  
@<TRIPOS>SUBSTRUCTURE
     1 KKM         1

