### 
### Created by X-TOOL on Mon Aug  2 16:15:18 2021
### 

@<TRIPOS>MOLECULE
6nfy_ligand
   57    59     1     0     0
SMALL
GAST_HUCK


@<TRIPOS>ATOM
      1 C4        -27.0720   77.8860  145.7030 C.3       1 B49         0.0032
      2 C5        -26.3440   70.3960  152.2130 C.ar      1 B49        -0.0474
      3 C6        -27.4590   71.2010  151.8840 C.ar      1 B49        -0.0482
      4 C7        -24.9930   71.6100  150.5600 C.ar      1 B49        -0.0432
      5 C13       -24.2360   75.6740  146.7860 C.2       1 B49        -0.0268
      6 C15       -25.1140   70.6180  151.5560 C.ar      1 B49         0.1099
      7 C17       -26.1230   72.4080  150.2200 C.ar      1 B49        -0.0112
      8 C20       -26.2800   73.5690  149.2870 C.2       1 B49         0.0299
      9 C21       -27.6750   73.9430  149.3340 C.2       1 B49         0.2046
     10 C22       -23.9240   77.5670  144.9290 C.2       1 B49         0.1771
     11 C3        -22.8350   75.0990  146.7950 C.3       1 B49        -0.0381
     12 C12       -25.2650   74.0020  148.5050 C.2       1 B49        -0.0340
     13 C14       -26.0660   76.8870  146.2920 C.2       1 B49         0.0723
     14 C16       -27.3410   72.1850  150.8700 C.ar      1 B49         0.0612
     15 C18       -25.3140   75.2190  147.5500 C.2       1 B49         0.0643
     16 C19       -24.7040   76.7400  145.9840 C.2       1 B49         0.0573
     17 N23       -26.3990   75.9890  147.2240 N.pl3     1 B49        -0.2702
     18 N24       -28.3150   73.1760  150.3560 N.am      1 B49        -0.2438
     19 N25       -22.5150   77.8440  145.0940 N.am      1 B49        -0.2873
     20 O27       -28.2590   74.7860  148.6770 O.2       1 B49        -0.3913
     21 O28       -24.5110   77.9400  143.9250 O.2       1 B49        -0.4049
     22 F29       -24.0700   69.8440  151.8550 F         1 B49        -0.1977
     23 C37       -21.7830   78.6660  144.1290 C.3       1 B49         0.0694
     24 C38       -21.7420   80.0920  144.7230 C.3       1 B49        -0.0114
     25 N4        -22.3060   81.1750  143.8910 N.4       1 B49         0.2363
     26 C39       -23.6960   80.9590  143.4810 C.3       1 B49        -0.0347
     27 C40       -21.3990   81.6280  142.8370 C.3       1 B49        -0.0347
     28 C41       -20.6720   82.9070  143.2950 C.3       1 B49        -0.0245
     29 C42       -24.4550   82.2830  143.2530 C.3       1 B49        -0.0245
     30 H1        -28.0575   77.7302  146.1662 H         1 B49         0.0471
     31 H2        -27.1490   77.7315  144.6166 H         1 B49         0.0471
     32 H3        -26.7304   78.9121  145.9041 H         1 B49         0.0471
     33 H4        -26.4325   69.6169  152.9615 H         1 B49         0.0519
     34 H5        -28.4001   71.0664  152.4049 H         1 B49         0.0478
     35 H6        -24.0455   71.7640  150.0564 H         1 B49         0.0507
     36 H7        -22.7803   74.2782  147.5252 H         1 B49         0.0375
     37 H8        -22.1177   75.8853  147.0728 H         1 B49         0.0375
     38 H9        -22.5895   74.7158  145.7936 H         1 B49         0.0375
     39 H10       -24.3304   73.4450  148.5514 H         1 B49         0.0691
     40 H11       -27.3370   75.8900  147.6379 H         1 B49         0.2314
     41 H12       -29.2577   73.2888  150.6700 H         1 B49         0.2226
     42 H13       -22.0306   77.4665  145.8832 H         1 B49         0.1834
     43 H14       -22.3034   78.6712  143.1599 H         1 B49         0.0571
     44 H15       -20.7621   78.2790  143.9950 H         1 B49         0.0571
     45 H16       -20.6890   80.3395  144.9228 H         1 B49         0.0834
     46 H17       -22.3007   80.0744  145.6704 H         1 B49         0.0834
     47 H18       -22.3616   81.9629  144.5172 H         1 B49         0.2034
     48 H19       -24.2113   80.3874  144.2669 H         1 B49         0.0812
     49 H20       -23.7024   80.3825  142.5442 H         1 B49         0.0812
     50 H21       -21.9754   81.8414  141.9247 H         1 B49         0.0812
     51 H22       -20.6591   80.8414  142.6277 H         1 B49         0.0812
     52 H23       -19.9905   83.2457  142.5007 H         1 B49         0.0281
     53 H24       -20.0950   82.6942  144.2070 H         1 B49         0.0281
     54 H25       -21.4114   83.6942  143.5041 H         1 B49         0.0281
     55 H26       -25.4892   82.0649  142.9481 H         1 B49         0.0281
     56 H27       -23.9541   82.8615  142.4628 H         1 B49         0.0281
     57 H28       -24.4630   82.8664  144.1855 H         1 B49         0.0281
@<TRIPOS>BOND
     1   13    1 1  
     2    3    2 ar 
     3    6    2 ar 
     4   14    3 ar 
     5    4    6 ar 
     6    7    4 ar 
     7    5   11 1  
     8    5   15 2  
     9   16    5 1  
    10    6   22 1  
    11    8    7 1  
    12    7   14 ar 
    13    8    9 1  
    14   12    8 2  
    15    9   18 am 
    16    9   20 2  
    17   16   10 1  
    18   10   19 am 
    19   10   21 2  
    20   15   12 1  
    21   13   16 2  
    22   13   17 1  
    23   14   18 1  
    24   15   17 1  
    25   19   23 1  
    26   23   24 1  
    27   24   25 1  
    28   25   26 1  
    29   25   27 1  
    30   26   29 1  
    31   27   28 1  
    32    1   30 1  
    33    1   31 1  
    34    1   32 1  
    35    2   33 1  
    36    3   34 1  
    37    4   35 1  
    38   11   36 1  
    39   11   37 1  
    40   11   38 1  
    41   12   39 1  
    42   17   40 1  
    43   18   41 1  
    44   19   42 1  
    45   23   43 1  
    46   23   44 1  
    47   24   45 1  
    48   24   46 1  
    49   25   47 1  
    50   26   48 1  
    51   26   49 1  
    52   27   50 1  
    53   27   51 1  
    54   28   52 1  
    55   28   53 1  
    56   28   54 1  
    57   29   55 1  
    58   29   56 1  
    59   29   57 1  
@<TRIPOS>SUBSTRUCTURE
     1 B49         1

