### 
### Created by X-TOOL on Mon Aug  2 16:15:18 2021
### 

@<TRIPOS>MOLECULE
6nfz_ligand
   57    59     1     0     0
SMALL
GAST_HUCK


@<TRIPOS>ATOM
      1 C4        184.2500  222.4120  154.8890 C.3       1 B49         0.0032
      2 C5        183.9310  231.9260  152.2090 C.ar      1 B49        -0.0474
      3 C6        183.9800  230.7340  151.4460 C.ar      1 B49        -0.0482
      4 C7        184.0260  230.6130  154.2660 C.ar      1 B49        -0.0432
      5 C13       184.5620  225.6040  156.8590 C.2       1 B49        -0.0268
      6 C15       183.9540  231.8630  153.6170 C.ar      1 B49         0.1099
      7 C17       184.0740  229.4130  153.5000 C.ar      1 B49        -0.0112
      8 C20       184.1540  227.9750  153.9070 C.2       1 B49         0.0299
      9 C21       184.1750  227.1770  152.6950 C.2       1 B49         0.2046
     10 C22       184.8340  223.2350  158.0000 C.2       1 B49         0.1771
     11 C3        184.7830  226.4650  158.0890 C.3       1 B49        -0.0381
     12 C12       184.1880  227.5530  155.1830 C.2       1 B49        -0.0340
     13 C14       184.3300  223.8450  155.4640 C.2       1 B49         0.0723
     14 C16       184.0520  229.4750  152.1000 C.ar      1 B49         0.0612
     15 C18       184.3000  226.0650  155.5690 C.2       1 B49         0.0643
     16 C19       184.5860  224.1920  156.8060 C.2       1 B49         0.0573
     17 N23       184.1610  224.9760  154.7440 N.pl3     1 B49        -0.2702
     18 N24       184.1140  228.0710  151.5730 N.am      1 B49        -0.2438
     19 N25       185.1680  221.8430  157.7770 N.am      1 B49        -0.2873
     20 O27       184.2350  225.9660  152.6210 O.2       1 B49        -0.3913
     21 O28       184.7350  223.6610  159.1350 O.2       1 B49        -0.4049
     22 F29       183.9080  232.9940  154.3360 F         1 B49        -0.1977
     23 C37       185.3910  220.9410  158.9030 C.3       1 B49         0.0694
     24 C38       186.2550  221.5990  159.9970 C.3       1 B49        -0.0114
     25 N4        187.3670  220.7080  160.3660 N.4       1 B49         0.2363
     26 C39       188.2560  220.5250  159.2240 C.3       1 B49        -0.0347
     27 C40       188.1060  221.2810  161.4770 C.3       1 B49        -0.0347
     28 C41       187.2060  221.4620  162.7110 C.3       1 B49        -0.0245
     29 C42       189.0720  219.2270  159.3730 C.3       1 B49        -0.0245
     30 H1        184.0368  222.4609  153.8110 H         1 B49         0.0471
     31 H2        183.4471  221.8574  155.3967 H         1 B49         0.0471
     32 H3        185.2092  221.8982  155.0501 H         1 B49         0.0471
     33 H4        183.8758  232.8869  151.7103 H         1 B49         0.0519
     34 H5        183.9626  230.7823  150.3632 H         1 B49         0.0478
     35 H6        184.0448  230.5653  155.3488 H         1 B49         0.0507
     36 H7        184.7027  227.5267  157.8126 H         1 B49         0.0375
     37 H8        185.7842  226.2677  158.4996 H         1 B49         0.0375
     38 H9        184.0222  226.2248  158.8463 H         1 B49         0.0375
     39 H10       184.1341  228.2948  155.9785 H         1 B49         0.0691
     40 H11       183.9595  225.0151  153.7347 H         1 B49         0.2314
     41 H12       184.1130  227.8047  150.6091 H         1 B49         0.2226
     42 H13       185.2466  221.4965  156.8422 H         1 B49         0.1834
     43 H14       185.9024  220.0373  158.5402 H         1 B49         0.0571
     44 H15       184.4185  220.6633  159.3356 H         1 B49         0.0571
     45 H16       185.6340  221.7925  160.8840 H         1 B49         0.0834
     46 H17       186.6601  222.5491  159.6186 H         1 B49         0.0834
     47 H18       186.9955  219.8126  160.6424 H         1 B49         0.2034
     48 H19       188.9454  221.3799  159.1621 H         1 B49         0.0812
     49 H20       187.6557  220.4707  158.3039 H         1 B49         0.0812
     50 H21       188.5030  222.2617  161.1759 H         1 B49         0.0812
     51 H22       188.9396  220.6118  161.7363 H         1 B49         0.0812
     52 H23       187.7938  221.8968  163.5329 H         1 B49         0.0281
     53 H24       186.8086  220.4845  163.0216 H         1 B49         0.0281
     54 H25       186.3720  222.1343  162.4612 H         1 B49         0.0281
     55 H26       189.7345  219.1085  158.5029 H         1 B49         0.0281
     56 H27       188.3873  218.3681  159.4321 H         1 B49         0.0281
     57 H28       189.6770  219.2774  160.2903 H         1 B49         0.0281
@<TRIPOS>BOND
     1   13    1 1  
     2    3    2 ar 
     3    6    2 ar 
     4   14    3 ar 
     5    4    6 ar 
     6    7    4 ar 
     7    5   11 1  
     8    5   15 2  
     9   16    5 1  
    10    6   22 1  
    11    8    7 1  
    12    7   14 ar 
    13    8    9 1  
    14   12    8 2  
    15    9   18 am 
    16    9   20 2  
    17   16   10 1  
    18   10   19 am 
    19   10   21 2  
    20   15   12 1  
    21   13   16 2  
    22   13   17 1  
    23   14   18 1  
    24   15   17 1  
    25   19   23 1  
    26   23   24 1  
    27   24   25 1  
    28   25   26 1  
    29   25   27 1  
    30   26   29 1  
    31   27   28 1  
    32    1   30 1  
    33    1   31 1  
    34    1   32 1  
    35    2   33 1  
    36    3   34 1  
    37    4   35 1  
    38   11   36 1  
    39   11   37 1  
    40   11   38 1  
    41   12   39 1  
    42   17   40 1  
    43   18   41 1  
    44   19   42 1  
    45   23   43 1  
    46   23   44 1  
    47   24   45 1  
    48   24   46 1  
    49   25   47 1  
    50   26   48 1  
    51   26   49 1  
    52   27   50 1  
    53   27   51 1  
    54   28   52 1  
    55   28   53 1  
    56   28   54 1  
    57   29   55 1  
    58   29   56 1  
    59   29   57 1  
@<TRIPOS>SUBSTRUCTURE
     1 B49         1

