### 
### Created by X-TOOL on Mon Aug  2 16:15:19 2021
### 

@<TRIPOS>MOLECULE
6ng0_ligand
   57    59     1     0     0
SMALL
GAST_HUCK


@<TRIPOS>ATOM
      1 C4        -31.8990  -85.7020  -19.1140 C.3       1 B49         0.0032
      2 C5        -30.5730  -83.3220  -28.5270 C.ar      1 B49        -0.0474
      3 C6        -29.9370  -84.2980  -27.7730 C.ar      1 B49        -0.0482
      4 C7        -31.9750  -82.7270  -26.6260 C.ar      1 B49        -0.0432
      5 C13       -33.5170  -83.1560  -21.3560 C.2       1 B49        -0.0268
      6 C15       -31.5650  -82.5690  -27.9330 C.ar      1 B49         0.1099
      7 C17       -31.3340  -83.6990  -25.8530 C.ar      1 B49        -0.0112
      8 C20       -31.4340  -84.1160  -24.4630 C.2       1 B49         0.0299
      9 C21       -30.4240  -85.2180  -24.3040 C.2       1 B49         0.2046
     10 C22       -34.1740  -83.4910  -18.8050 C.2       1 B49         0.1771
     11 C3        -34.4630  -82.0660  -21.7720 C.3       1 B49        -0.0381
     12 C12       -32.2860  -83.5830  -23.5450 C.2       1 B49        -0.0340
     13 C14       -32.4340  -84.7530  -20.1380 C.2       1 B49         0.0723
     14 C16       -30.3250  -84.4850  -26.4470 C.ar      1 B49         0.0612
     15 C18       -32.5700  -83.7990  -22.1770 C.2       1 B49         0.0643
     16 C19       -33.4200  -83.7720  -20.0670 C.2       1 B49         0.0573
     17 N23       -31.9360  -84.7520  -21.4140 N.pl3     1 B49        -0.2702
     18 N24       -29.8180  -85.3700  -25.5050 N.am      1 B49        -0.2438
     19 N25       -34.5810  -82.2420  -18.5690 N.am      1 B49        -0.2873
     20 O27       -30.2000  -85.8920  -23.2920 O.2       1 B49        -0.3913
     21 O28       -34.3550  -84.3850  -17.9750 O.2       1 B49        -0.4049
     22 F29       -32.1570  -81.5900  -28.6640 F         1 B49        -0.1977
     23 C37       -35.0490  -81.8210  -17.2520 C.3       1 B49         0.0694
     24 C38       -36.4540  -81.2210  -17.2810 C.3       1 B49        -0.0114
     25 N4        -37.5520  -82.2020  -17.4060 N.4       1 B49         0.2363
     26 C39       -38.8570  -81.5050  -17.2820 C.3       1 B49        -0.0347
     27 C40       -37.5360  -83.3190  -16.4260 C.3       1 B49        -0.0347
     28 C41       -37.6550  -84.6970  -17.0390 C.3       1 B49        -0.0245
     29 C42       -39.4620  -81.0170  -18.5840 C.3       1 B49        -0.0245
     30 H1        -31.1150  -86.3265  -19.5671 H         1 B49         0.0471
     31 H2        -32.7136  -86.3443  -18.7482 H         1 B49         0.0471
     32 H3        -31.4747  -85.1334  -18.2734 H         1 B49         0.0471
     33 H4        -30.2961  -83.1545  -29.5616 H         1 B49         0.0519
     34 H5        -29.1513  -84.9051  -28.2079 H         1 B49         0.0478
     35 H6        -32.7692  -82.1168  -26.2113 H         1 B49         0.0507
     36 H7        -34.2868  -81.8107  -22.8274 H         1 B49         0.0375
     37 H8        -34.2955  -81.1766  -21.1467 H         1 B49         0.0375
     38 H9        -35.4995  -82.4124  -21.6467 H         1 B49         0.0375
     39 H10       -32.9029  -82.7929  -23.9705 H         1 B49         0.0691
     40 H11       -31.1914  -85.3770  -21.7544 H         1 B49         0.2314
     41 H12       -29.0957  -86.0362  -25.6904 H         1 B49         0.2226
     42 H13       -34.5649  -81.5762  -19.3150 H         1 B49         0.1834
     43 H14       -34.3534  -81.0655  -16.8578 H         1 B49         0.0571
     44 H15       -35.0555  -82.6964  -16.5860 H         1 B49         0.0571
     45 H16       -36.5130  -80.5326  -18.1369 H         1 B49         0.0834
     46 H17       -36.6039  -80.6589  -16.3474 H         1 B49         0.0834
     47 H18       -37.4867  -82.6062  -18.3271 H         1 B49         0.2034
     48 H19       -38.7148  -80.6332  -16.6265 H         1 B49         0.0812
     49 H20       -39.5703  -82.2012  -16.8167 H         1 B49         0.0812
     50 H21       -38.3778  -83.1785  -15.7320 H         1 B49         0.0812
     51 H22       -36.5891  -83.2724  -15.8682 H         1 B49         0.0812
     52 H23       -37.6342  -85.4556  -16.2427 H         1 B49         0.0281
     53 H24       -36.8143  -84.8657  -17.7281 H         1 B49         0.0281
     54 H25       -38.6030  -84.7718  -17.5919 H         1 B49         0.0281
     55 H26       -40.4209  -80.5187  -18.3786 H         1 B49         0.0281
     56 H27       -39.6298  -81.8731  -19.2540 H         1 B49         0.0281
     57 H28       -38.7743  -80.3051  -19.0638 H         1 B49         0.0281
@<TRIPOS>BOND
     1   13    1 1  
     2    3    2 ar 
     3    6    2 ar 
     4   14    3 ar 
     5    4    6 ar 
     6    7    4 ar 
     7    5   11 1  
     8    5   15 2  
     9   16    5 1  
    10    6   22 1  
    11    8    7 1  
    12    7   14 ar 
    13    8    9 1  
    14   12    8 2  
    15    9   18 am 
    16    9   20 2  
    17   16   10 1  
    18   10   19 am 
    19   10   21 2  
    20   15   12 1  
    21   13   16 2  
    22   13   17 1  
    23   14   18 1  
    24   15   17 1  
    25   19   23 1  
    26   23   24 1  
    27   24   25 1  
    28   25   26 1  
    29   25   27 1  
    30   26   29 1  
    31   27   28 1  
    32    1   30 1  
    33    1   31 1  
    34    1   32 1  
    35    2   33 1  
    36    3   34 1  
    37    4   35 1  
    38   11   36 1  
    39   11   37 1  
    40   11   38 1  
    41   12   39 1  
    42   17   40 1  
    43   18   41 1  
    44   19   42 1  
    45   23   43 1  
    46   23   44 1  
    47   24   45 1  
    48   24   46 1  
    49   25   47 1  
    50   26   48 1  
    51   26   49 1  
    52   27   50 1  
    53   27   51 1  
    54   28   52 1  
    55   28   53 1  
    56   28   54 1  
    57   29   55 1  
    58   29   56 1  
    59   29   57 1  
@<TRIPOS>SUBSTRUCTURE
     1 B49         1

