### 
### Created by X-TOOL on Mon Aug  2 16:15:19 2021
### 

@<TRIPOS>MOLECULE
6nj0_ligand
   62    66     1     0     0
SMALL
GAST_HUCK


@<TRIPOS>ATOM
      1 C1         13.4860  -21.3970   -7.1640 C.ar      1 KOY         0.1613
      2 C2         13.1390  -20.3650   -7.9910 C.ar      1 KOY         0.1045
      3 C3         12.9820  -20.5690   -9.3200 C.ar      1 KOY         0.1298
      4 C4         13.2870  -19.6700   -5.9440 C.2       1 KOY         0.1123
      5 N1         13.1780  -21.7960   -9.8520 N.ar      1 KOY        -0.2698
      6 N2         13.6870  -22.6410   -7.6470 N.ar      1 KOY        -0.2714
      7 O1         10.8520   -9.7870   -6.8060 O.co2     1 KOY        -0.5594
      8 C5         10.8630  -11.0210   -7.0740 C.2       1 KOY         0.0668
      9 O2         11.8380  -11.4940   -7.6870 O.co2     1 KOY        -0.5594
     10 C6          9.7580  -11.8550   -6.6690 C.ar      1 KOY         0.0285
     11 C7          8.5530  -11.7140   -7.3440 C.ar      1 KOY        -0.0420
     12 C8          7.4250  -12.4550   -6.9850 C.ar      1 KOY        -0.0538
     13 C9          7.4720  -13.3330   -5.9340 C.ar      1 KOY        -0.0535
     14 C10         8.7000  -13.5250   -5.2660 C.ar      1 KOY        -0.0397
     15 C11         9.8350  -12.7290   -5.5440 C.ar      1 KOY         0.0464
     16 C12        11.0720  -12.8800   -4.8240 C.2       1 KOY         0.1373
     17 O3         11.8600  -11.9380   -4.6630 O.2       1 KOY        -0.3771
     18 C13        11.3140  -14.0790   -3.8890 C.3       1 KOY         0.0324
     19 C14        12.7660  -14.1760   -3.3920 C.3       1 KOY        -0.0063
     20 C15        12.9430  -15.2750   -2.4900 C.ar      1 KOY        -0.0497
     21 C16        13.0970  -16.5720   -2.9900 C.ar      1 KOY        -0.0321
     22 C17        12.9990  -15.1090   -1.0930 C.ar      1 KOY        -0.0713
     23 C18        13.1220  -16.1950   -0.2680 C.ar      1 KOY        -0.0772
     24 C19        13.2740  -17.4750   -0.7880 C.ar      1 KOY        -0.0401
     25 C20        13.2630  -17.6860   -2.1630 C.ar      1 KOY         0.0845
     26 O4         13.4360  -18.9340   -2.7530 O.3       1 KOY        -0.3171
     27 C21        14.3990  -19.7750   -2.0790 C.3       1 KOY         0.0990
     28 C22        14.6520  -21.0990   -2.8060 C.3       1 KOY         0.1181
     29 O5         13.5020  -21.4480   -3.4980 O.3       1 KOY        -0.3364
     30 C23        15.8030  -20.8960   -3.7990 C.3       1 KOY         0.1149
     31 O6         17.0780  -20.9300   -3.1300 O.3       1 KOY        -0.3864
     32 C24        15.5650  -22.0550   -4.6770 C.3       1 KOY         0.1385
     33 O7         16.0510  -23.3610   -4.0330 O.3       1 KOY        -0.3836
     34 C25        13.9830  -21.9290   -4.7880 C.3       1 KOY         0.2010
     35 N3         13.6060  -20.9630   -5.9040 N.pl3     1 KOY        -0.1919
     36 N4         13.0060  -19.2940   -7.2080 N.2       1 KOY        -0.2958
     37 C26        13.5220  -22.8520   -9.0470 C.ar      1 KOY         0.0533
     38 N5         12.6350  -19.5510  -10.1170 N.pl3     1 KOY        -0.3152
     39 H1         13.2574  -19.0101   -5.0782 H         1 KOY         0.1349
     40 H2          8.4862  -11.0130   -8.1682 H         1 KOY         0.0664
     41 H3          6.5035  -12.3345   -7.5431 H         1 KOY         0.0661
     42 H4          6.5833  -13.8695   -5.6219 H         1 KOY         0.0650
     43 H5          8.7754  -14.3057   -4.5177 H         1 KOY         0.0679
     44 H6         11.0686  -15.0025   -4.4339 H         1 KOY         0.0508
     45 H7         10.6516  -13.9811   -3.0163 H         1 KOY         0.0508
     46 H8         13.0286  -13.2425   -2.8729 H         1 KOY         0.0448
     47 H9         13.4309  -14.3140   -4.2573 H         1 KOY         0.0448
     48 H10        13.0872  -16.7192   -4.0639 H         1 KOY         0.0478
     49 H11        12.9443  -14.1137   -0.6671 H         1 KOY         0.0464
     50 H12        13.1005  -16.0543    0.8066 H         1 KOY         0.0572
     51 H13        13.4022  -18.3161   -0.1163 H         1 KOY         0.0486
     52 H14        14.0244  -19.9963   -1.0687 H         1 KOY         0.0640
     53 H15        15.3507  -19.2284   -2.0056 H         1 KOY         0.0640
     54 H16        14.9114  -21.8868   -2.0834 H         1 KOY         0.0651
     55 H17        15.7097  -19.9484   -4.3497 H         1 KOY         0.0648
     56 H18        17.7717  -20.8021   -3.7663 H         1 KOY         0.2100
     57 H19        16.0494  -21.9386   -5.6577 H         1 KOY         0.0676
     58 H20        16.9835  -23.3004   -3.8616 H         1 KOY         0.2101
     59 H21        13.5445  -22.9146   -5.0032 H         1 KOY         0.0996
     60 H22        13.6671  -23.8386   -9.4719 H         1 KOY         0.0996
     61 H23        12.5155  -19.7062  -11.1282 H         1 KOY         0.1820
     62 H24        12.4875  -18.6125   -9.7190 H         1 KOY         0.1820
@<TRIPOS>BOND
     1    1    2 ar 
     2    1    6 ar 
     3   35    1 1  
     4    2    3 ar 
     5   36    2 1  
     6    3    5 ar 
     7    3   38 1  
     8   35    4 1  
     9    4   36 2  
    10   37    5 ar 
    11    6   37 ar 
    12    8    7 ar 
    13    8    9 ar 
    14   10    8 1  
    15   10   11 ar 
    16   15   10 ar 
    17   11   12 ar 
    18   13   12 ar 
    19   14   13 ar 
    20   15   14 ar 
    21   16   15 1  
    22   16   17 2  
    23   18   16 1  
    24   19   18 1  
    25   20   19 1  
    26   21   20 ar 
    27   20   22 ar 
    28   25   21 ar 
    29   23   22 ar 
    30   24   23 ar 
    31   25   24 ar 
    32   26   25 1  
    33   27   26 1  
    34   28   27 1  
    35   29   28 1  
    36   30   28 1  
    37   34   29 1  
    38   30   31 1  
    39   32   30 1  
    40   32   33 1  
    41   34   32 1  
    42   34   35 1  
    43    4   39 1  
    44   11   40 1  
    45   12   41 1  
    46   13   42 1  
    47   14   43 1  
    48   18   44 1  
    49   18   45 1  
    50   19   46 1  
    51   19   47 1  
    52   21   48 1  
    53   22   49 1  
    54   23   50 1  
    55   24   51 1  
    56   27   52 1  
    57   27   53 1  
    58   28   54 1  
    59   30   55 1  
    60   31   56 1  
    61   32   57 1  
    62   33   58 1  
    63   34   59 1  
    64   37   60 1  
    65   38   61 1  
    66   38   62 1  
@<TRIPOS>SUBSTRUCTURE
     1 KOY         1

