### 
### Created by X-TOOL on Mon Aug  2 16:15:19 2021
### 

@<TRIPOS>MOLECULE
6njh_ligand
   44    46     1     0     0
SMALL
GAST_HUCK


@<TRIPOS>ATOM
      1 CL          1.4200  -17.6370   52.7150 Cl        1 KRD        -0.0693
      2 C17         2.3270  -16.1420   52.9450 C.ar      1 KRD         0.0467
      3 C16         2.1820  -15.4450   54.0970 C.ar      1 KRD        -0.0427
      4 C15         2.9230  -14.2960   54.2720 C.ar      1 KRD        -0.0549
      5 C14         3.8040  -13.8580   53.3150 C.ar      1 KRD        -0.0438
      6 C18         3.1870  -15.6830   51.9550 C.ar      1 KRD        -0.0299
      7 C13         3.8990  -14.5290   52.1520 C.ar      1 KRD         0.0232
      8 C3          4.8710  -14.0990   51.1350 C.ar      1 KRD         0.1156
      9 N           6.2160  -13.9360   51.5180 N.ar      1 KRD        -0.2531
     10 N1          4.4620  -13.9770   49.8540 N.ar      1 KRD        -0.2298
     11 C4          5.3990  -13.6740   48.9490 C.ar      1 KRD         0.2116
     12 N2          6.6480  -13.4740   49.3220 N.ar      1 KRD        -0.2276
     13 C2          7.0880  -13.5820   50.5720 C.ar      1 KRD         0.0983
     14 C1          8.5920  -13.4230   50.8110 C.3       1 KRD         0.0140
     15 C           8.9420  -12.8550   52.1380 C.3       1 KRD        -0.0486
     16 N3          5.1050  -13.4460   47.6650 N.pl3     1 KRD        -0.2409
     17 C5          3.8800  -13.1030   47.2490 C.ar      1 KRD         0.0619
     18 C10         2.7200  -13.7240   47.7050 C.ar      1 KRD        -0.0432
     19 C9          1.4900  -13.2320   47.2950 C.ar      1 KRD        -0.0666
     20 C8          1.4150  -12.1710   46.4270 C.ar      1 KRD        -0.0348
     21 C7          2.5510  -11.5930   45.9740 C.ar      1 KRD        -0.0666
     22 C6          3.7910  -12.0510   46.3970 C.ar      1 KRD        -0.0432
     23 C11         0.0730  -11.6790   45.9420 C.3       1 KRD         0.0652
     24 C12        -0.2770  -10.3950   46.6350 C.2       1 KRD         0.1833
     25 O           0.1760   -9.3160   46.2160 O.2       1 KRD        -0.3947
     26 N4         -1.0930  -10.5300   47.7160 N.am      1 KRD        -0.2994
     27 H1          1.4971  -15.7838   54.8659 H         1 KRD         0.0665
     28 H2          2.8073  -13.7253   55.1863 H         1 KRD         0.0632
     29 H3          4.4164  -12.9816   53.4938 H         1 KRD         0.0675
     30 H4          3.2944  -16.2364   51.0291 H         1 KRD         0.0680
     31 H5          8.9962  -12.7577   50.0338 H         1 KRD         0.0517
     32 H6          9.0613  -14.4142   50.7256 H         1 KRD         0.0517
     33 H7         10.0356  -12.7753   52.2258 H         1 KRD         0.0261
     34 H8          8.5575  -13.5127   52.9314 H         1 KRD         0.0261
     35 H9          8.4923  -11.8563   52.2396 H         1 KRD         0.0261
     36 H10         5.8546  -13.5384   46.9646 H         1 KRD         0.2197
     37 H11         2.7776  -14.5783   48.3698 H         1 KRD         0.0525
     38 H12         0.5790  -13.6896   47.6634 H         1 KRD         0.0535
     39 H13         2.4924  -10.7661   45.2755 H         1 KRD         0.0535
     40 H14         4.6937  -11.5653   46.0445 H         1 KRD         0.0525
     41 H15        -0.6950  -12.4347   46.1633 H         1 KRD         0.0639
     42 H16         0.1171  -11.5079   44.8563 H         1 KRD         0.0639
     43 H17        -1.3740   -9.7223   48.2343 H         1 KRD         0.1815
     44 H18        -1.4115  -11.4369   47.9919 H         1 KRD         0.1815
@<TRIPOS>BOND
     1    1    2 1  
     2    2    3 ar 
     3    2    6 ar 
     4    3    4 ar 
     5    4    5 ar 
     6    5    7 ar 
     7    6    7 ar 
     8    7    8 1  
     9    8    9 ar 
    10    8   10 ar 
    11    9   13 ar 
    12   10   11 ar 
    13   11   12 ar 
    14   11   16 1  
    15   12   13 ar 
    16   13   14 1  
    17   14   15 1  
    18   16   17 1  
    19   17   18 ar 
    20   17   22 ar 
    21   18   19 ar 
    22   19   20 ar 
    23   20   21 ar 
    24   20   23 1  
    25   21   22 ar 
    26   23   24 1  
    27   24   25 2  
    28   24   26 am 
    29    3   27 1  
    30    4   28 1  
    31    5   29 1  
    32    6   30 1  
    33   14   31 1  
    34   14   32 1  
    35   15   33 1  
    36   15   34 1  
    37   15   35 1  
    38   16   36 1  
    39   18   37 1  
    40   19   38 1  
    41   21   39 1  
    42   22   40 1  
    43   23   41 1  
    44   23   42 1  
    45   26   43 1  
    46   26   44 1  
@<TRIPOS>SUBSTRUCTURE
     1 KRD         1

