### 
### Created by X-TOOL on Mon Aug  2 16:15:19 2021
### 

@<TRIPOS>MOLECULE
6nji_ligand
   44    46     1     0     0
SMALL
GAST_HUCK


@<TRIPOS>ATOM
      1 C4        -20.0780  -15.0560   99.9320 C.ar      1 KR4         0.2116
      2 C5        -21.2220  -14.4830   97.9610 C.ar      1 KR4         0.0616
      3 C6        -21.3350  -13.3170   97.2340 C.ar      1 KR4        -0.0436
      4 C7        -22.5350  -12.9470   96.6080 C.ar      1 KR4        -0.0688
      5 C8        -23.6820  -13.7390   96.7400 C.ar      1 KR4        -0.0514
      6 C10       -22.3840  -15.2250   98.1460 C.ar      1 KR4        -0.0436
      7 C9        -23.5880  -14.8570   97.5320 C.ar      1 KR4        -0.0688
      8 C12       -25.6840  -12.1240   96.6400 C.3       1 KR4         0.0523
      9 C11       -25.0070  -13.3920   96.0610 C.3       1 KR4        -0.0009
     10 C18       -22.8210  -17.2860  102.3860 C.ar      1 KR4        -0.0299
     11 C3        -21.0290  -15.6470  102.0120 C.ar      1 KR4         0.1156
     12 C2        -18.8220  -14.9750  101.9490 C.ar      1 KR4         0.0983
     13 C1        -17.4570  -14.7250  102.5540 C.3       1 KR4         0.0140
     14 CL        -24.6950  -19.2830  102.5530 Cl        1 KR4        -0.0693
     15 C17       -23.9130  -17.7660  103.1110 C.ar      1 KR4         0.0467
     16 C16       -24.3700  -17.0970  104.2380 C.ar      1 KR4        -0.0427
     17 C15       -23.7590  -15.9280  104.6350 C.ar      1 KR4        -0.0549
     18 C14       -22.6590  -15.4500  103.9140 C.ar      1 KR4        -0.0438
     19 C13       -22.1990  -16.1370  102.8030 C.ar      1 KR4         0.0232
     20 N         -19.8760  -15.4290  102.6840 N.ar      1 KR4        -0.2531
     21 N1        -21.1600  -15.4470  100.6490 N.ar      1 KR4        -0.2298
     22 N2        -18.9490  -14.7770  100.6060 N.ar      1 KR4        -0.2277
     23 C         -17.4380  -13.9350  103.8160 C.3       1 KR4        -0.0486
     24 N3        -20.0740  -14.7080   98.6210 N.pl3     1 KR4        -0.2411
     25 O         -24.9890  -10.8850   96.2740 O.3       1 KR4        -0.3932
     26 H1        -20.4719  -12.6674   97.1434 H         1 KR4         0.0524
     27 H2        -22.5744  -12.0394   96.0166 H         1 KR4         0.0530
     28 H3        -22.3572  -16.1054   98.7778 H         1 KR4         0.0524
     29 H4        -24.4683  -15.4705   97.6860 H         1 KR4         0.0530
     30 H5        -25.7008  -12.2055   97.7368 H         1 KR4         0.0578
     31 H6        -26.7151  -12.0727   96.2602 H         1 KR4         0.0578
     32 H7        -25.6948  -14.2414   96.1849 H         1 KR4         0.0428
     33 H8        -24.8170  -13.2272   94.9902 H         1 KR4         0.0428
     34 H9        -22.4698  -17.8135  101.5065 H         1 KR4         0.0680
     35 H10       -16.8526  -14.1855  101.8100 H         1 KR4         0.0517
     36 H11       -16.9966  -15.7022  102.7616 H         1 KR4         0.0517
     37 H12       -25.2052  -17.4933  104.8041 H         1 KR4         0.0665
     38 H13       -24.1266  -15.3837  105.4974 H         1 KR4         0.0632
     39 H14       -22.1645  -14.5374  104.2267 H         1 KR4         0.0675
     40 H15       -16.3996  -13.8180  104.1597 H         1 KR4         0.0261
     41 H16       -18.0221  -14.4601  104.5861 H         1 KR4         0.0261
     42 H17       -17.8781  -12.9434  103.6345 H         1 KR4         0.0261
     43 H18       -19.1767  -14.6148   98.1239 H         1 KR4         0.2196
     44 H19       -24.9749  -10.7987   95.3280 H         1 KR4         0.2096
@<TRIPOS>BOND
     1   21    1 ar 
     2    1   22 ar 
     3    1   24 1  
     4    2    3 ar 
     5    2    6 ar 
     6   24    2 1  
     7    3    4 ar 
     8    4    5 ar 
     9    7    5 ar 
    10    5    9 1  
    11    6    7 ar 
    12    9    8 1  
    13    8   25 1  
    14   10   15 ar 
    15   19   10 ar 
    16   11   19 1  
    17   20   11 ar 
    18   11   21 ar 
    19   12   13 1  
    20   12   20 ar 
    21   12   22 ar 
    22   13   23 1  
    23   15   14 1  
    24   15   16 ar 
    25   16   17 ar 
    26   17   18 ar 
    27   18   19 ar 
    28    3   26 1  
    29    4   27 1  
    30    6   28 1  
    31    7   29 1  
    32    8   30 1  
    33    8   31 1  
    34    9   32 1  
    35    9   33 1  
    36   10   34 1  
    37   13   35 1  
    38   13   36 1  
    39   16   37 1  
    40   17   38 1  
    41   18   39 1  
    42   23   40 1  
    43   23   41 1  
    44   23   42 1  
    45   24   43 1  
    46   25   44 1  
@<TRIPOS>SUBSTRUCTURE
     1 KR4         1

