### 
### Created by X-TOOL on Mon Aug  2 16:15:19 2021
### 

@<TRIPOS>MOLECULE
6njj_ligand
   42    44     1     0     0
SMALL
GAST_HUCK


@<TRIPOS>ATOM
      1 C8          5.4510  -13.1970   47.5310 C.3       1 KR7         0.0240
      2 C9          5.7140  -13.4110   49.0260 C.ar      1 KR7         0.0152
      3 C10         6.9930  -13.1490   49.5520 C.ar      1 KR7        -0.0018
      4 C11         7.2440  -13.3740   50.9030 C.ar      1 KR7         0.1123
      5 C12         8.6050  -13.1370   51.4790 C.3       1 KR7         0.3935
      6 C7          3.9690  -12.9110   47.2420 C.ar      1 KR7        -0.0359
      7 C2          1.2860  -12.3030   46.8210 C.ar      1 KR7        -0.0365
      8 C3          1.7440  -13.6230   46.6450 C.ar      1 KR7        -0.0646
      9 C6          3.5040  -11.6170   47.4380 C.ar      1 KR7        -0.0642
     10 C4          3.0700  -13.9290   46.8430 C.ar      1 KR7        -0.0642
     11 C5          2.1670  -11.3210   47.2050 C.ar      1 KR7        -0.0646
     12 O1          0.0180  -12.2760   44.2260 O.co2     1 KR7        -0.5665
     13 C13         5.0510  -14.0570   51.2540 C.ar      1 KR7         0.0737
     14 C14         4.0580  -14.5620   52.2110 C.ar      1 KR7         0.0065
     15 C1         -0.1780  -11.9220   46.6070 C.3       1 KR7         0.0306
     16 C15         3.8570  -13.8690   53.3830 C.ar      1 KR7        -0.0493
     17 C16         2.9270  -14.3190   54.2950 C.ar      1 KR7        -0.0582
     18 C18         2.4910  -16.2030   52.9490 C.ar      1 KR7         0.0435
     19 C20         4.7250  -13.8880   49.8800 C.ar      1 KR7         0.0033
     20 C17         2.2670  -15.5040   54.0740 C.ar      1 KR7        -0.0456
     21 C19         3.3790  -15.7400   51.9820 C.ar      1 KR7        -0.0355
     22 C          -0.7210  -12.2410   45.2210 C.2       1 KR7         0.0453
     23 O          -2.0490  -12.5030   45.0550 O.co2     1 KR7        -0.5665
     24 N           6.2750  -13.8180   51.7170 N.ar      1 KR7        -0.2704
     25 F2          9.1090  -12.1030   50.8830 F         1 KR7        -0.2137
     26 F1          8.5950  -12.9570   52.7790 F         1 KR7        -0.2137
     27 F           9.3080  -14.2020   51.2740 F         1 KR7        -0.2137
     28 CL          1.5900  -17.6920   52.6850 Cl        1 KR7        -0.0701
     29 H1          5.7508  -14.1033   46.9844 H         1 KR7         0.0599
     30 H2          6.0516  -12.3435   47.1834 H         1 KR7         0.0599
     31 H3          7.7797  -12.7734   48.9077 H         1 KR7         0.0900
     32 H4          1.0484  -14.4011   46.3522 H         1 KR7         0.0543
     33 H5          4.1825  -10.8403   47.7718 H         1 KR7         0.0545
     34 H6          3.4243  -14.9427   46.6946 H         1 KR7         0.0545
     35 H7          1.8145  -10.3033   47.3276 H         1 KR7         0.0543
     36 H8         -0.2785  -10.8394   46.7737 H         1 KR7         0.0576
     37 H9         -0.7852  -12.4648   47.3464 H         1 KR7         0.0576
     38 H10         4.4289  -12.9713   53.5882 H         1 KR7         0.0646
     39 H11         2.7162  -13.7387   55.1860 H         1 KR7         0.0624
     40 H12         3.7342  -14.1241   49.5089 H         1 KR7         0.0883
     41 H13         1.5633  -15.8758   54.8100 H         1 KR7         0.0642
     42 H14         3.5340  -16.2962   51.0645 H         1 KR7         0.0651
@<TRIPOS>BOND
     1    1    2 1  
     2    6    1 1  
     3    2    3 ar 
     4    2   19 ar 
     5    3    4 ar 
     6    4    5 1  
     7    4   24 ar 
     8    5   25 1  
     9    5   26 1  
    10    5   27 1  
    11    9    6 ar 
    12   10    6 ar 
    13    7    8 ar 
    14    7   11 ar 
    15   15    7 1  
    16    8   10 ar 
    17   11    9 ar 
    18   22   12 ar 
    19   13   14 1  
    20   19   13 ar 
    21   13   24 ar 
    22   14   16 ar 
    23   14   21 ar 
    24   15   22 1  
    25   16   17 ar 
    26   17   20 ar 
    27   20   18 ar 
    28   18   21 ar 
    29   18   28 1  
    30   22   23 ar 
    31    1   29 1  
    32    1   30 1  
    33    3   31 1  
    34    8   32 1  
    35    9   33 1  
    36   10   34 1  
    37   11   35 1  
    38   15   36 1  
    39   15   37 1  
    40   16   38 1  
    41   17   39 1  
    42   19   40 1  
    43   20   41 1  
    44   21   42 1  
@<TRIPOS>SUBSTRUCTURE
     1 KR7         1

