### 
### Created by X-TOOL on Mon Aug  2 16:15:20 2021
### 

@<TRIPOS>MOLECULE
6nlj_ligand
   32    34     1     0     0
SMALL
GAST_HUCK


@<TRIPOS>ATOM
      1 C02        -8.4540  103.2450  -40.9580 C.2       1 KTV         0.2288
      2 C04        -6.9830  103.7170  -42.7220 C.2       1 KTV         0.2340
      3 C05        -8.2760  104.5180  -42.9810 C.ar      1 KTV         0.0617
      4 C06        -9.1500  104.2280  -41.9290 C.ar      1 KTV         0.0896
      5 C07       -10.4340  104.8070  -41.9030 C.ar      1 KTV         0.0659
      6 C09       -12.6500  104.8730  -40.6430 C.3       1 KTV         0.0567
      7 C10       -13.1100  104.4500  -39.2500 C.ar      1 KTV        -0.0304
      8 C11       -13.3000  103.1090  -38.9270 C.ar      1 KTV        -0.0306
      9 C12       -13.7150  102.7720  -37.6360 C.ar      1 KTV         0.0810
     10 C14       -13.9390  103.7630  -36.6960 C.ar      1 KTV        -0.0403
     11 C15       -13.7550  105.0920  -37.0260 C.ar      1 KTV        -0.0771
     12 C16       -13.3370  105.4330  -38.3000 C.ar      1 KTV        -0.0695
     13 C17       -10.8240  105.6760  -42.9210 C.ar      1 KTV        -0.0337
     14 C18        -9.9480  105.9610  -43.9780 C.ar      1 KTV        -0.0634
     15 C19        -8.6710  105.3880  -44.0170 C.ar      1 KTV        -0.0499
     16 N03        -7.1500  102.9830  -41.4970 N.am      1 KTV        -0.2010
     17 N08       -11.2710  104.4660  -40.7620 N.pl3     1 KTV        -0.3065
     18 O01        -8.8340  102.7380  -39.9390 O.2       1 KTV        -0.3751
     19 O13       -13.9100  101.4350  -37.2660 O.3       1 KTV        -0.3349
     20 O20        -6.0180  103.6860  -43.3880 O.2       1 KTV        -0.3675
     21 H1        -12.7350  105.9639  -40.7560 H         1 KTV         0.0677
     22 H2        -13.2602  104.3761  -41.4116 H         1 KTV         0.0677
     23 H3        -13.1282  102.3363  -39.6676 H         1 KTV         0.0479
     24 H4        -14.2604  103.4951  -35.6960 H         1 KTV         0.0485
     25 H5        -13.9377  105.8654  -36.2887 H         1 KTV         0.0572
     26 H6        -13.1862  106.4753  -38.5566 H         1 KTV         0.0465
     27 H7        -11.8069  106.1324  -42.8953 H         1 KTV         0.0565
     28 H8        -10.2618  106.6301  -44.7711 H         1 KTV         0.0629
     29 H9         -7.9944  105.6109  -44.8341 H         1 KTV         0.0575
     30 H10        -6.4642  102.3832  -41.0847 H         1 KTV         0.2213
     31 H11       -10.8584  103.9065  -40.0020 H         1 KTV         0.1809
     32 H12       -14.8122  101.3108  -36.9955 H         1 KTV         0.2479
@<TRIPOS>BOND
     1    4    1 1  
     2    1   16 am 
     3    1   18 2  
     4    3    2 1  
     5    2   16 am 
     6    2   20 2  
     7    4    3 ar 
     8    3   15 ar 
     9    5    4 ar 
    10    5   13 ar 
    11   17    5 1  
    12    6    7 1  
    13    6   17 1  
    14    7    8 ar 
    15    7   12 ar 
    16    8    9 ar 
    17    9   10 ar 
    18    9   19 1  
    19   10   11 ar 
    20   11   12 ar 
    21   13   14 ar 
    22   14   15 ar 
    23    6   21 1  
    24    6   22 1  
    25    8   23 1  
    26   10   24 1  
    27   11   25 1  
    28   12   26 1  
    29   13   27 1  
    30   14   28 1  
    31   15   29 1  
    32   16   30 1  
    33   17   31 1  
    34   19   32 1  
@<TRIPOS>SUBSTRUCTURE
     1 KTV         1

