### 
### Created by X-TOOL on Mon Aug  2 16:12:03 2021
### 

@<TRIPOS>MOLECULE
6nm4_ligand
   67    71     1     0     0
SMALL
GAST_HUCK


@<TRIPOS>ATOM
      1 C4          0.6860  -30.2590   18.8440 C.3       1 KS7         0.0591
      2 C5          0.2100  -31.9030   22.0350 C.ar      1 KS7        -0.0360
      3 C6          0.4740  -31.8050   23.4010 C.ar      1 KS7        -0.0195
      4 N1         -1.4790  -35.8290   25.0650 N.pl3     1 KS7        -0.2387
      5 C7          0.0130  -32.8740   24.3260 C.2       1 KS7         0.0924
      6 C8         -0.8480  -34.6670   24.9760 C.2       1 KS7         0.3104
      7 N2         -5.9800  -34.5940   22.7470 N.pl3     1 KS7        -0.3018
      8 C9         -2.2200  -36.2880   23.8910 C.3       1 KS7         0.0831
      9 C10        -3.7630  -36.0840   24.0870 C.3       1 KS7         0.0147
     10 C11        -4.0830  -34.6070   24.3660 C.3       1 KS7         0.0153
     11 C12        -5.4900  -34.1200   24.0480 C.3       1 KS7         0.0346
     12 N3         -9.7430  -33.1030   21.5660 N.ar      1 KS7        -0.3175
     13 C13        -7.2380  -34.0960   22.3470 C.ar      1 KS7         0.0534
     14 C14        -7.8890  -33.0950   23.0770 C.ar      1 KS7        -0.0169
     15 C15        -9.1300  -32.6240   22.6690 C.ar      1 KS7         0.0098
     16 N4         -4.1230  -37.0650   25.1840 N.4       1 KS7         0.2404
     17 C21        -5.3730  -36.8760   25.9340 C.3       1 KS7        -0.0424
     18 C20        -4.3920  -36.4860   22.7450 C.3       1 KS7         0.0153
     19 C19        -5.8420  -36.0480   22.6260 C.3       1 KS7         0.0346
     20 C18        -7.8850  -34.5790   21.2100 C.ar      1 KS7        -0.0239
     21 C17        -9.1170  -34.0580   20.8670 C.ar      1 KS7        -0.0116
     22 C16        -9.8490  -31.5590   23.4390 C.3       1 KS7        -0.0193
     23 C22        -3.0080  -37.4860   26.0560 C.3       1 KS7        -0.0102
     24 C23        -2.0350  -36.3340   26.3250 C.3       1 KS7         0.0774
     25 O2         -0.2800  -34.1060   26.0560 O.3       1 KS7        -0.1143
     26 N           0.2970  -32.8840   25.6000 N.2       1 KS7        -0.1304
     27 N5         -0.7050  -33.9570   23.8910 N.2       1 KS7        -0.2695
     28 C3          0.7180  -30.9480   21.1630 C.ar      1 KS7         0.0825
     29 O1          0.3070  -31.1800   19.8700 O.3       1 KS7        -0.3241
     30 C2          1.4960  -29.8970   21.6310 C.ar      1 KS7        -0.0053
     31 C24         1.2250  -30.7360   23.8850 C.ar      1 KS7        -0.0360
     32 C1          1.7260  -29.7940   22.9980 C.ar      1 KS7         0.0825
     33 O           2.3940  -28.7980   23.6600 O.3       1 KS7        -0.3241
     34 C           2.9270  -27.7120   22.9020 C.3       1 KS7         0.0591
     35 H1          0.2758  -30.5947   17.8801 H         1 KS7         0.0577
     36 H2          1.7831  -30.2131   18.7795 H         1 KS7         0.0577
     37 H3          0.2906  -29.2607   19.0830 H         1 KS7         0.0577
     38 H4         -0.3898  -32.7219   21.6547 H         1 KS7         0.0454
     39 H5         -2.0156  -37.3570   23.7315 H         1 KS7         0.0587
     40 H6         -1.8903  -35.7164   23.0110 H         1 KS7         0.0587
     41 H7         -3.3827  -34.0005   23.7730 H         1 KS7         0.0343
     42 H8         -3.9068  -34.4284   25.4370 H         1 KS7         0.0343
     43 H9         -6.1716  -34.4810   24.8322 H         1 KS7         0.0521
     44 H10        -5.4874  -33.0200   24.0422 H         1 KS7         0.0521
     45 H11        -7.4221  -32.6853   23.9654 H         1 KS7         0.0540
     46 H12        -4.3187  -37.8985   24.6520 H         1 KS7         0.2038
     47 H13        -5.4737  -37.6729   26.6855 H         1 KS7         0.0778
     48 H14        -6.2262  -36.9158   25.2408 H         1 KS7         0.0778
     49 H15        -5.3545  -35.8979   26.4370 H         1 KS7         0.0778
     50 H16        -4.3454  -37.5807   22.6477 H         1 KS7         0.0343
     51 H17        -3.8154  -36.0207   21.9320 H         1 KS7         0.0343
     52 H18        -6.2303  -36.3628   21.6461 H         1 KS7         0.0521
     53 H19        -6.4265  -36.5293   23.4239 H         1 KS7         0.0521
     54 H20        -7.4273  -35.3525   20.6040 H         1 KS7         0.0556
     55 H21        -9.6058  -34.4448   19.9801 H         1 KS7         0.0759
     56 H22        -9.2423  -31.2613   24.3069 H         1 KS7         0.0416
     57 H23       -10.8181  -31.9477   23.7850 H         1 KS7         0.0416
     58 H24       -10.0144  -30.6860   22.7905 H         1 KS7         0.0416
     59 H25        -2.4627  -38.3066   25.5668 H         1 KS7         0.0835
     60 H26        -3.4178  -37.8379   27.0142 H         1 KS7         0.0835
     61 H27        -2.5695  -35.5204   26.8371 H         1 KS7         0.0581
     62 H28        -1.2154  -36.6938   26.9644 H         1 KS7         0.0581
     63 H29         1.9156  -29.1713   20.9437 H         1 KS7         0.0466
     64 H30         1.4167  -30.6408   24.9477 H         1 KS7         0.0454
     65 H31         3.4288  -27.0043   23.5783 H         1 KS7         0.0577
     66 H32         2.1105  -27.1980   22.3737 H         1 KS7         0.0577
     67 H33         3.6524  -28.0968   22.1701 H         1 KS7         0.0577
@<TRIPOS>BOND
     1   29    1 1  
     2    2    3 ar 
     3   28    2 ar 
     4    3    5 1  
     5    3   31 ar 
     6    6    4 1  
     7    4    8 1  
     8    4   24 1  
     9    5   26 2  
    10    5   27 1  
    11    6   25 1  
    12   27    6 2  
    13   11    7 1  
    14    7   13 1  
    15   19    7 1  
    16    8    9 1  
    17    9   10 1  
    18    9   16 1  
    19    9   18 1  
    20   10   11 1  
    21   15   12 ar 
    22   21   12 ar 
    23   13   14 ar 
    24   13   20 ar 
    25   14   15 ar 
    26   15   22 1  
    27   16   17 1  
    28   23   16 1  
    29   18   19 1  
    30   20   21 ar 
    31   24   23 1  
    32   26   25 1  
    33   28   29 1  
    34   28   30 ar 
    35   30   32 ar 
    36   31   32 ar 
    37   32   33 1  
    38   33   34 1  
    39    1   35 1  
    40    1   36 1  
    41    1   37 1  
    42    2   38 1  
    43    8   39 1  
    44    8   40 1  
    45   10   41 1  
    46   10   42 1  
    47   11   43 1  
    48   11   44 1  
    49   14   45 1  
    50   16   46 1  
    51   17   47 1  
    52   17   48 1  
    53   17   49 1  
    54   18   50 1  
    55   18   51 1  
    56   19   52 1  
    57   19   53 1  
    58   20   54 1  
    59   21   55 1  
    60   22   56 1  
    61   22   57 1  
    62   22   58 1  
    63   23   59 1  
    64   23   60 1  
    65   24   61 1  
    66   24   62 1  
    67   30   63 1  
    68   31   64 1  
    69   34   65 1  
    70   34   66 1  
    71   34   67 1  
@<TRIPOS>SUBSTRUCTURE
     1 KS7         1

