### 
### Created by X-TOOL on Mon Aug  2 16:15:20 2021
### 

@<TRIPOS>MOLECULE
6nmb_ligand
   26    26     1     0     0
SMALL
GAST_HUCK


@<TRIPOS>ATOM
      1 C1         56.8140   -4.9740  109.1180 C.3       1 AMH         0.0118
      2 C2         55.6900   -5.0740  108.0560 C.3       1 AMH        -0.0382
      3 C3         55.6020   -6.4900  107.4480 C.3       1 AMH        -0.0436
      4 C4         56.7940   -7.4510  107.8200 C.3       1 AMH        -0.0007
      5 C5         57.1800   -7.4920  109.3070 C.3       1 AMH        -0.0436
      6 C6         56.8200   -6.1900  110.0720 C.3       1 AMH        -0.0382
      7 C7         56.5450   -8.8720  107.3570 C.3       1 AMH        -0.0325
      8 C8         56.7670   -3.6190  109.8550 C.2       1 AMH         0.0379
      9 N          55.4490   -8.9820  106.3750 N.4       1 AMH         0.2187
     10 O1         56.9120   -2.6010  109.1390 O.co2     1 AMH        -0.5687
     11 O2         56.5680   -3.6160  111.0930 O.co2     1 AMH        -0.5687
     12 H1         57.7695   -5.0017  108.5737 H         1 AMH         0.0466
     13 H2         55.8951   -4.3528  107.2511 H         1 AMH         0.0286
     14 H3         54.7283   -4.8298  108.5309 H         1 AMH         0.0286
     15 H4         55.5738   -6.3898  106.3529 H         1 AMH         0.0271
     16 H5         54.6680   -6.9540  107.7979 H         1 AMH         0.0271
     17 H6         57.6711   -7.0733  107.2741 H         1 AMH         0.0352
     18 H7         58.2658   -7.6515  109.3814 H         1 AMH         0.0271
     19 H8         56.6525   -8.3326  109.7814 H         1 AMH         0.0271
     20 H9         55.8220   -6.3004  110.5212 H         1 AMH         0.0286
     21 H10        57.5627   -6.0215  110.8657 H         1 AMH         0.0286
     22 H11        56.2910   -9.4856  108.2339 H         1 AMH         0.0816
     23 H12        57.4670   -9.2556  106.8957 H         1 AMH         0.0816
     24 H13        55.3332   -9.9469  106.1074 H         1 AMH         0.1994
     25 H14        55.6714   -8.4318  105.5602 H         1 AMH         0.1994
     26 H15        54.5938   -8.6425  106.7865 H         1 AMH         0.1994
@<TRIPOS>BOND
     1    1    2 1  
     2    1    6 1  
     3    1    8 1  
     4    2    3 1  
     5    3    4 1  
     6    4    5 1  
     7    4    7 1  
     8    5    6 1  
     9    7    9 1  
    10    8   10 ar 
    11    8   11 ar 
    12    1   12 1  
    13    2   13 1  
    14    2   14 1  
    15    3   15 1  
    16    3   16 1  
    17    4   17 1  
    18    5   18 1  
    19    5   19 1  
    20    6   20 1  
    21    6   21 1  
    22    7   22 1  
    23    7   23 1  
    24    9   24 1  
    25    9   25 1  
    26    9   26 1  
@<TRIPOS>SUBSTRUCTURE
     1 AMH         1

