### 
### Created by X-TOOL on Mon Aug  2 16:11:34 2021
### 

@<TRIPOS>MOLECULE
6nng_ligand
   50    54     1     0     0
SMALL
GAST_HUCK


@<TRIPOS>ATOM
      1 C1         15.0120  -65.5800  -36.7690 C.3       1 DJ9         0.0552
      2 C10        19.2090  -69.0880  -42.7560 C.ar      1 DJ9         0.0977
      3 C11        18.2070  -67.3580  -43.6040 C.2       1 DJ9         0.1375
      4 C12        17.7950  -66.3650  -44.4740 C.ar      1 DJ9         0.0215
      5 C13        17.8650  -66.5500  -45.8500 C.ar      1 DJ9        -0.0240
      6 C14        17.4400  -65.5100  -46.7210 C.ar      1 DJ9         0.0701
      7 C15        16.9170  -64.2590  -48.4540 C.2       1 DJ9         0.0249
      8 C16        16.6180  -63.5180  -47.3160 C.2       1 DJ9        -0.0597
      9 C17        16.9600  -64.3340  -46.2040 C.ar      1 DJ9        -0.0232
     10 C18        16.8870  -64.1510  -44.8010 C.ar      1 DJ9        -0.0704
     11 C19        17.3050  -65.1680  -43.9480 C.ar      1 DJ9        -0.0613
     12 C2         15.7780  -67.5250  -37.6710 C.ar      1 DJ9         0.1509
     13 C20        18.3990  -68.5450  -41.7900 C.ar      1 DJ9         0.0623
     14 C21        17.9550  -68.3400  -38.2330 C.ar      1 DJ9        -0.0414
     15 C22        17.0820  -67.8080  -37.3010 C.ar      1 DJ9         0.1147
     16 C23        18.9080  -67.4820  -35.8470 C.3       1 DJ9         0.0565
     17 C3         15.3380  -67.7620  -38.9620 C.ar      1 DJ9         0.1147
     18 C4         13.6810  -67.7110  -40.6520 C.3       1 DJ9         0.0565
     19 C5         16.2120  -68.3050  -39.8860 C.ar      1 DJ9        -0.0414
     20 C6         17.5200  -68.5980  -39.5300 C.ar      1 DJ9        -0.0323
     21 C7         18.3560  -69.1460  -40.5000 C.ar      1 DJ9         0.0390
     22 C8         19.8720  -70.7690  -41.1640 C.ar      1 DJ9        -0.0088
     23 C9         19.9720  -70.2390  -42.4420 C.ar      1 DJ9        -0.0165
     24 N1         19.0720  -70.2320  -40.2330 N.ar      1 DJ9        -0.3154
     25 N2         19.0700  -68.3260  -43.8740 N.pl3     1 DJ9        -0.2438
     26 N3         17.4000  -65.4330  -48.0780 N.pl3     1 DJ9        -0.2770
     27 N4         17.7930  -67.4660  -42.3520 N.2       1 DJ9        -0.2994
     28 O1         14.9010  -66.9690  -36.7440 O.3       1 DJ9        -0.3268
     29 O2         14.0150  -67.4590  -39.3160 O.3       1 DJ9        -0.3274
     30 O3         17.5170  -67.5600  -35.9920 O.3       1 DJ9        -0.3274
     31 H1         14.3180  -65.1435  -36.0356 H         1 DJ9         0.0570
     32 H2         14.7630  -65.2103  -37.7746 H         1 DJ9         0.0570
     33 H3         16.0425  -65.2899  -36.5164 H         1 DJ9         0.0570
     34 H4         18.2414  -67.4818  -46.2564 H         1 DJ9         0.0604
     35 H5         16.7773  -63.9290  -49.4823 H         1 DJ9         0.0962
     36 H6         16.2037  -62.5114  -47.2834 H         1 DJ9         0.0301
     37 H7         16.5066  -63.2215  -44.3931 H         1 DJ9         0.0546
     38 H8         17.2501  -65.0308  -42.8741 H         1 DJ9         0.0556
     39 H9         18.9796  -68.5563  -37.9529 H         1 DJ9         0.0443
     40 H10        19.1564  -67.2862  -34.7934 H         1 DJ9         0.0572
     41 H11        19.2967  -66.6654  -36.4732 H         1 DJ9         0.0572
     42 H12        19.3633  -68.4331  -36.1604 H         1 DJ9         0.0572
     43 H13        12.6286  -67.4411  -40.8240 H         1 DJ9         0.0572
     44 H14        13.8261  -68.7792  -40.8710 H         1 DJ9         0.0572
     45 H15        14.3258  -67.1107  -41.3107 H         1 DJ9         0.0572
     46 H16        15.8722  -68.5031  -40.8961 H         1 DJ9         0.0443
     47 H17        20.4590  -71.6444  -40.9108 H         1 DJ9         0.0719
     48 H18        20.6188  -70.6950  -43.1828 H         1 DJ9         0.0619
     49 H19        19.5511  -68.4753  -44.7724 H         1 DJ9         0.2329
     50 H20        17.7017  -66.1796  -48.7202 H         1 DJ9         0.2278
@<TRIPOS>BOND
     1   28    1 1  
     2   13    2 ar 
     3    2   23 ar 
     4    2   25 1  
     5    3    4 1  
     6    3   25 1  
     7   27    3 2  
     8    4    5 ar 
     9    4   11 ar 
    10    5    6 ar 
    11    6    9 ar 
    12    6   26 1  
    13    8    7 2  
    14   26    7 1  
    15    9    8 1  
    16   10    9 ar 
    17   11   10 ar 
    18   15   12 ar 
    19   17   12 ar 
    20   12   28 1  
    21   21   13 ar 
    22   13   27 1  
    23   14   15 ar 
    24   20   14 ar 
    25   15   30 1  
    26   30   16 1  
    27   19   17 ar 
    28   17   29 1  
    29   29   18 1  
    30   20   19 ar 
    31   20   21 1  
    32   21   24 ar 
    33   23   22 ar 
    34   22   24 ar 
    35    1   31 1  
    36    1   32 1  
    37    1   33 1  
    38    5   34 1  
    39    7   35 1  
    40    8   36 1  
    41   10   37 1  
    42   11   38 1  
    43   14   39 1  
    44   16   40 1  
    45   16   41 1  
    46   16   42 1  
    47   18   43 1  
    48   18   44 1  
    49   18   45 1  
    50   19   46 1  
    51   22   47 1  
    52   23   48 1  
    53   25   49 1  
    54   26   50 1  
@<TRIPOS>SUBSTRUCTURE
     1 DJ9         1

