### 
### Created by X-TOOL on Mon Aug  2 16:15:20 2021
### 

@<TRIPOS>MOLECULE
6no9_ligand
   55    58     1     0     0
SMALL
GAST_HUCK


@<TRIPOS>ATOM
      1 N2        -36.3920   -2.5070    6.7130 N.pl3     1 KUV        -0.2074
      2 C10       -42.1430   -1.7490    5.5880 C.2       1 KUV         0.1085
      3 C4        -38.4930   -2.3090    6.1060 C.2       1 KUV         0.0872
      4 C1        -35.1770   -2.7260    7.5100 C.3       1 KUV         0.0537
      5 C11       -43.1370   -1.3920    4.7030 C.2       1 KUV         0.1439
      6 C13       -43.7550   -1.5060    7.1550 C.2       1 KUV         0.1046
      7 C15       -44.3490   -1.5130    8.5230 C.ar      1 KUV         0.0787
      8 C16       -43.7610   -2.2280    9.5810 C.ar      1 KUV         0.1437
      9 C17       -44.3330   -2.2260   10.8450 C.ar      1 KUV        -0.0304
     10 C18       -45.5060   -1.5210   11.0790 C.ar      1 KUV        -0.0649
     11 C19       -46.1050   -0.8290   10.0410 C.ar      1 KUV        -0.0304
     12 C20       -45.5390   -0.8190    8.7780 C.ar      1 KUV         0.1437
     13 C25       -37.7350   -4.0250    8.9920 C.3       1 KUV         0.0323
     14 C26       -38.2170   -4.3370   10.4210 C.3       1 KUV         0.0125
     15 C27       -39.6260   -3.7680   10.6910 C.3       1 KUV         0.0092
     16 C29       -39.6010   -2.3420   11.1830 C.3       1 KUV         0.1448
     17 C3        -37.6750   -2.5100    7.1750 C.2       1 KUV         0.1730
     18 C31       -39.2980   -1.3500   10.0400 C.3       1 KUV         0.0032
     19 C32       -37.9980   -1.6250    9.4350 C.3       1 KUV         0.0300
     20 C5        -37.6930   -2.1190    4.9740 C.2       1 KUV        -0.0034
     21 C8        -40.7500   -1.9920    5.2090 C.2       1 KUV         0.1937
     22 F21       -46.1290   -0.1380    7.7740 F         1 KUV        -0.1815
     23 F22       -42.6170   -2.9130    9.3820 F         1 KUV        -0.1815
     24 F33       -40.8660   -2.0710   11.7350 F         1 KUV        -0.2396
     25 N14       -42.5130   -1.7600    6.8760 N.2       1 KUV        -0.3203
     26 N23       -43.0350   -1.2790    3.3290 N.pl3     1 KUV        -0.3107
     27 N24       -38.1450   -2.7380    8.4730 N.pl3     1 KUV        -0.2916
     28 N34       -40.2630   -4.6300   11.7070 N.4       1 KUV         0.2228
     29 N6        -36.4410   -2.2630    5.3420 N.2       1 KUV        -0.2521
     30 N7        -39.8900   -2.1760    6.2310 N.am      1 KUV        -0.2701
     31 O9        -40.3830   -2.0010    4.0450 O.2       1 KUV        -0.4045
     32 S12       -44.5990   -1.1410    5.6440 S.3       1 KUV         0.0316
     33 H1        -34.2940   -2.6637    6.8570 H         1 KUV         0.0582
     34 H2        -35.2187   -3.7214    7.9762 H         1 KUV         0.0582
     35 H3        -35.1087   -1.9568    8.2933 H         1 KUV         0.0582
     36 H4        -43.8629   -2.7763   11.6520 H         1 KUV         0.0571
     37 H5        -45.9496   -1.5127   12.0680 H         1 KUV         0.0601
     38 H6        -47.0278   -0.2888   10.2191 H         1 KUV         0.0571
     39 H7        -38.1286   -4.8036    8.3220 H         1 KUV         0.0514
     40 H8        -36.6356   -4.0593    8.9881 H         1 KUV         0.0514
     41 H9        -37.5112   -3.8939   11.1389 H         1 KUV         0.0340
     42 H10       -38.2422   -5.4282   10.5574 H         1 KUV         0.0340
     43 H11       -40.2091   -3.8046    9.7590 H         1 KUV         0.0879
     44 H12       -38.8278   -2.2368   11.9583 H         1 KUV         0.0709
     45 H13       -39.2970   -0.3267   10.4435 H         1 KUV         0.0314
     46 H14       -40.0785   -1.4399    9.2701 H         1 KUV         0.0314
     47 H15       -37.2781   -1.9059   10.2178 H         1 KUV         0.0513
     48 H16       -37.6375   -0.7281    8.9100 H         1 KUV         0.0513
     49 H17       -38.0453   -1.8925    3.9688 H         1 KUV         0.0552
     50 H18       -43.8563   -1.0019    2.7727 H         1 KUV         0.1849
     51 H19       -42.1377   -1.4719    2.8616 H         1 KUV         0.1849
     52 H20       -40.2791   -5.5824   11.3772 H         1 KUV         0.1998
     53 H21       -41.2064   -4.3152   11.8710 H         1 KUV         0.1998
     54 H22       -39.7382   -4.5808   12.5662 H         1 KUV         0.1998
     55 H23       -40.2751   -2.2218    7.1527 H         1 KUV         0.2032
@<TRIPOS>BOND
     1    1    4 1  
     2   17    1 1  
     3   29    1 1  
     4    2    5 2  
     5   21    2 1  
     6    2   25 1  
     7    3   17 2  
     8    3   20 1  
     9   30    3 1  
    10    5   26 1  
    11    5   32 1  
    12    6    7 1  
    13   25    6 2  
    14    6   32 1  
    15    7    8 ar 
    16    7   12 ar 
    17    8    9 ar 
    18    8   23 1  
    19    9   10 ar 
    20   11   10 ar 
    21   12   11 ar 
    22   12   22 1  
    23   13   14 1  
    24   27   13 1  
    25   14   15 1  
    26   16   15 1  
    27   15   28 1  
    28   18   16 1  
    29   16   24 1  
    30   17   27 1  
    31   19   18 1  
    32   27   19 1  
    33   20   29 2  
    34   21   30 am 
    35   21   31 2  
    36    4   33 1  
    37    4   34 1  
    38    4   35 1  
    39    9   36 1  
    40   10   37 1  
    41   11   38 1  
    42   13   39 1  
    43   13   40 1  
    44   14   41 1  
    45   14   42 1  
    46   15   43 1  
    47   16   44 1  
    48   18   45 1  
    49   18   46 1  
    50   19   47 1  
    51   19   48 1  
    52   20   49 1  
    53   26   50 1  
    54   26   51 1  
    55   28   52 1  
    56   28   53 1  
    57   28   54 1  
    58   30   55 1  
@<TRIPOS>SUBSTRUCTURE
     1 KUV         1

