### 
### Created by X-TOOL on Mon Aug  2 16:15:20 2021
### 

@<TRIPOS>MOLECULE
6np2_ligand
   73    75     1     0     0
SMALL
GAST_HUCK


@<TRIPOS>ATOM
      1 C11       108.9100  -17.8280   -7.6890 C.3       1 SIS         0.2239
      2 C12       112.6850  -14.8110   -5.6210 C.3       1 SIS         0.0104
      3 C13       112.6290  -12.6990   -8.2910 C.3       1 SIS         0.1911
      4 C21       107.4670  -18.1610   -7.3100 C.3       1 SIS         0.0333
      5 C22       112.9310  -16.2760   -5.2850 C.3       1 SIS         0.0381
      6 C23       112.7560  -11.2410   -7.8820 C.3       1 SIS         0.1509
      7 C31       106.7160  -18.5360   -8.5970 C.3       1 SIS        -0.0030
      8 C32       111.5870  -16.9950   -5.2960 C.3       1 SIS         0.0104
      9 C33       111.3760  -10.5750   -7.8710 C.3       1 SIS         0.0397
     10 C41       107.5600  -19.4470   -9.4540 C.2       1 SIS        -0.0784
     11 C42       110.8980  -16.8630   -6.6500 C.3       1 SIS         0.1330
     12 C43       110.6980  -10.7650   -9.2270 C.3       1 SIS         0.1311
     13 C51       108.8390  -19.6300   -9.2430 C.2       1 SIS         0.0997
     14 C52       110.7370  -15.4080   -7.0620 C.3       1 SIS         0.1181
     15 C53       110.7010  -12.2360   -9.6430 C.3       1 SIS         0.0846
     16 C61       109.6110  -20.5420  -10.1680 C.3       1 SIS         0.0190
     17 C62       112.0760  -14.6980   -7.0120 C.3       1 SIS         0.1325
     18 C83       109.2340  -10.3160   -9.1620 C.3       1 SIS        -0.0285
     19 C93       110.6840   -8.7040   -6.4190 C.3       1 SIS        -0.0444
     20 N12       113.9420  -14.0650   -5.5530 N.4       1 SIS         0.2228
     21 N21       107.4650  -19.2620   -6.3390 N.4       1 SIS         0.2254
     22 N32       111.7490  -18.4320   -5.0170 N.4       1 SIS         0.2228
     23 N33       111.5330   -9.1330   -7.5550 N.4       1 SIS         0.2310
     24 N61       110.9530  -19.9860  -10.3970 N.4       1 SIS         0.2322
     25 O11       109.6140  -17.4700   -6.4980 O.3       1 SIS        -0.3313
     26 O23       113.2610  -11.1890   -6.5570 O.3       1 SIS        -0.3812
     27 O43       111.4280   -9.9820  -10.1670 O.3       1 SIS        -0.3809
     28 O51       109.5090  -18.9940   -8.2610 O.3       1 SIS        -0.2867
     29 O52       110.2520  -15.3460   -8.3980 O.3       1 SIS        -0.3862
     30 O53       112.0070  -12.8070   -9.5570 O.3       1 SIS        -0.3455
     31 O62       111.8170  -13.3270   -7.3120 O.3       1 SIS        -0.3371
     32 H1        108.9349  -16.9970   -8.4093 H         1 SIS         0.1026
     33 H2        111.9812  -14.3891   -4.8885 H         1 SIS         0.0878
     34 H3        113.6219  -13.1710   -8.3257 H         1 SIS         0.0939
     35 H4        106.9893  -17.2810   -6.8545 H         1 SIS         0.0917
     36 H5        113.3900  -16.3583   -4.2887 H         1 SIS         0.0377
     37 H6        113.5997  -16.7236   -6.0350 H         1 SIS         0.0377
     38 H7        113.4286  -10.7126   -8.5736 H         1 SIS         0.0703
     39 H8        106.4843  -17.6204   -9.1609 H         1 SIS         0.0368
     40 H9        105.7804  -19.0510   -8.3334 H         1 SIS         0.0368
     41 H10       110.9473  -16.5472   -4.5212 H         1 SIS         0.0878
     42 H11       110.7545  -11.0450   -7.0946 H         1 SIS         0.0907
     43 H12       107.0862  -19.9734  -10.2812 H         1 SIS         0.0142
     44 H13       111.4804  -17.3920   -7.4187 H         1 SIS         0.0681
     45 H14       110.0280  -14.9112   -6.3834 H         1 SIS         0.0649
     46 H15       110.3459  -12.3135  -10.6812 H         1 SIS         0.0591
     47 H16       110.0234  -12.7950   -8.9809 H         1 SIS         0.0591
     48 H17       109.0801  -20.6255  -11.1278 H         1 SIS         0.0998
     49 H18       109.7001  -21.5383   -9.7103 H         1 SIS         0.0998
     50 H19       112.7645  -15.1299   -7.7533 H         1 SIS         0.0681
     51 H20       109.1879   -9.2580   -8.8646 H         1 SIS         0.0260
     52 H21       108.6951  -10.9281   -8.4238 H         1 SIS         0.0260
     53 H22       108.7683  -10.4396  -10.1509 H         1 SIS         0.0260
     54 H23       110.8397   -7.6317   -6.2294 H         1 SIS         0.0777
     55 H24       110.9554   -9.2783   -5.5210 H         1 SIS         0.0777
     56 H25       109.6266   -8.8833   -6.6633 H         1 SIS         0.0777
     57 H26       114.3328  -14.1489   -4.6277 H         1 SIS         0.1998
     58 H27       113.7676  -13.0934   -5.7572 H         1 SIS         0.1998
     59 H28       114.5915  -14.4388   -6.2272 H         1 SIS         0.1998
     60 H29       107.9651  -18.9801   -5.5104 H         1 SIS         0.2000
     61 H30       107.9139  -20.0684   -6.7444 H         1 SIS         0.2000
     62 H31       106.5147  -19.4935   -6.0954 H         1 SIS         0.2000
     63 H32       112.2033  -18.5520   -4.1252 H         1 SIS         0.1998
     64 H33       112.3112  -18.8533   -5.7398 H         1 SIS         0.1998
     65 H34       110.8435  -18.8742   -4.9949 H         1 SIS         0.1998
     66 H35       111.2800   -8.5946   -8.3687 H         1 SIS         0.2015
     67 H36       112.4977   -8.9565   -7.3219 H         1 SIS         0.2015
     68 H37       111.4679  -20.5944  -11.0140 H         1 SIS         0.2009
     69 H38       111.4396  -19.9095   -9.5176 H         1 SIS         0.2009
     70 H39       110.8714  -19.0731  -10.8164 H         1 SIS         0.2009
     71 H40       113.3301  -10.2826   -6.2810 H         1 SIS         0.2103
     72 H41       111.4172   -9.0718   -9.8954 H         1 SIS         0.2105
     73 H42       110.8709  -15.7731   -8.9785 H         1 SIS         0.2100
@<TRIPOS>BOND
     1    1    4 1  
     2   25    1 1  
     3    1   28 1  
     4    2    5 1  
     5   17    2 1  
     6    2   20 1  
     7    3    6 1  
     8    3   30 1  
     9   31    3 1  
    10    4    7 1  
    11    4   21 1  
    12    5    8 1  
    13    6    9 1  
    14    6   26 1  
    15    7   10 1  
    16   11    8 1  
    17    8   22 1  
    18    9   12 1  
    19    9   23 1  
    20   13   10 2  
    21   14   11 1  
    22   11   25 1  
    23   15   12 1  
    24   12   18 1  
    25   12   27 1  
    26   13   16 1  
    27   28   13 1  
    28   17   14 1  
    29   14   29 1  
    30   30   15 1  
    31   16   24 1  
    32   17   31 1  
    33   23   19 1  
    34    1   32 1  
    35    2   33 1  
    36    3   34 1  
    37    4   35 1  
    38    5   36 1  
    39    5   37 1  
    40    6   38 1  
    41    7   39 1  
    42    7   40 1  
    43    8   41 1  
    44    9   42 1  
    45   10   43 1  
    46   11   44 1  
    47   14   45 1  
    48   15   46 1  
    49   15   47 1  
    50   16   48 1  
    51   16   49 1  
    52   17   50 1  
    53   18   51 1  
    54   18   52 1  
    55   18   53 1  
    56   19   54 1  
    57   19   55 1  
    58   19   56 1  
    59   20   57 1  
    60   20   58 1  
    61   20   59 1  
    62   21   60 1  
    63   21   61 1  
    64   21   62 1  
    65   22   63 1  
    66   22   64 1  
    67   22   65 1  
    68   23   66 1  
    69   23   67 1  
    70   24   68 1  
    71   24   69 1  
    72   24   70 1  
    73   26   71 1  
    74   27   72 1  
    75   29   73 1  
@<TRIPOS>SUBSTRUCTURE
     1 SIS         1

