### 
### Created by X-TOOL on Mon Aug  2 16:15:20 2021
### 

@<TRIPOS>MOLECULE
6np3_ligand
   75    77     1     0     0
SMALL
GAST_HUCK


@<TRIPOS>ATOM
      1 C11       108.5670  -18.1180   -7.5980 C.3       1 LLL         0.2034
      2 O11       109.4690  -18.0780   -6.4760 O.3       1 LLL        -0.3348
      3 C21       107.2310  -18.6950   -7.1130 C.3       1 LLL         0.0279
      4 N21       107.4410  -19.7950   -6.1920 N.4       1 LLL         0.2243
      5 C31       106.4930  -19.2870   -8.2930 C.3       1 LLL        -0.0025
      6 C41       107.2810  -20.5460   -8.7060 C.3       1 LLL        -0.0162
      7 C51       108.7850  -20.3030   -8.5140 C.3       1 LLL         0.1015
      8 O51       109.0710  -18.9230   -8.6670 O.3       1 LLL        -0.3378
      9 C61       109.5010  -21.1150   -9.5910 C.3       1 LLL        -0.0084
     10 N61       110.7060  -20.4350  -10.0790 N.4       1 LLL         0.2204
     11 C12       112.5090  -15.2930   -5.6240 C.3       1 LLL         0.0104
     12 N12       113.7520  -14.5230   -5.5480 N.4       1 LLL         0.2228
     13 C22       112.7580  -16.7620   -5.2950 C.3       1 LLL         0.0381
     14 C32       111.4110  -17.4720   -5.2980 C.3       1 LLL         0.0104
     15 N32       111.6030  -18.8790   -4.9370 N.4       1 LLL         0.2228
     16 C42       110.7280  -17.4160   -6.6660 C.3       1 LLL         0.1326
     17 C52       110.5950  -15.9560   -7.1100 C.3       1 LLL         0.1181
     18 O52       110.1440  -15.9290   -8.4550 O.3       1 LLL        -0.3862
     19 C62       111.9190  -15.1960   -7.0340 C.3       1 LLL         0.1325
     20 O62       111.6490  -13.8260   -7.3000 O.3       1 LLL        -0.3371
     21 C13       112.4530  -13.2110   -8.3090 C.3       1 LLL         0.1911
     22 C23       112.5790  -11.7400   -7.9110 C.3       1 LLL         0.1509
     23 O23       113.1170  -11.6810   -6.5990 O.3       1 LLL        -0.3812
     24 C33       111.1960  -11.0700   -7.8800 C.3       1 LLL         0.0397
     25 N33       111.3480   -9.6240   -7.6150 N.4       1 LLL         0.2310
     26 C43       110.5170  -11.2910   -9.2410 C.3       1 LLL         0.1311
     27 O43       111.2290  -10.5190  -10.2000 O.3       1 LLL        -0.3809
     28 C53       110.5410  -12.7780   -9.6140 C.3       1 LLL         0.0846
     29 O53       111.8560  -13.3130   -9.6110 O.3       1 LLL        -0.3455
     30 C83       109.0560  -10.8350   -9.1830 C.3       1 LLL        -0.0285
     31 C93       110.5050   -9.2330   -6.4690 C.3       1 LLL        -0.0444
     32 H1        108.4125  -17.0943   -7.9696 H         1 LLL         0.0969
     33 H2        106.6352  -17.9030   -6.6357 H         1 LLL         0.0900
     34 H3        106.5493  -20.1548   -5.8895 H         1 LLL         0.1999
     35 H4        107.9606  -19.4690   -5.3921 H         1 LLL         0.1999
     36 H5        107.9590  -20.5259   -6.6541 H         1 LLL         0.1999
     37 H6        106.4624  -18.5668   -9.1239 H         1 LLL         0.0322
     38 H7        105.4666  -19.5574   -8.0041 H         1 LLL         0.0322
     39 H8        107.0796  -20.7727   -9.7634 H         1 LLL         0.0294
     40 H9        106.9656  -21.3954   -8.0823 H         1 LLL         0.0294
     41 H10       109.1009  -20.6363   -7.5145 H         1 LLL         0.0651
     42 H11       108.8135  -21.2697  -10.4356 H         1 LLL         0.0839
     43 H12       109.7888  -22.0893   -9.1692 H         1 LLL         0.0839
     44 H13       111.1482  -21.0012  -10.7861 H         1 LLL         0.1995
     45 H14       111.3457  -20.2939   -9.3129 H         1 LLL         0.1995
     46 H15       110.4520  -19.5428  -10.4734 H         1 LLL         0.1995
     47 H16       111.7904  -14.8797   -4.9010 H         1 LLL         0.0878
     48 H17       114.1336  -14.5920   -4.6176 H         1 LLL         0.1998
     49 H18       113.5622  -13.5566   -5.7625 H         1 LLL         0.1998
     50 H19       114.4160  -14.8904   -6.2115 H         1 LLL         0.1998
     51 H20       113.2255  -16.8498   -4.3032 H         1 LLL         0.0377
     52 H21       113.4186  -17.2088   -6.0526 H         1 LLL         0.0377
     53 H22       110.7582  -16.9897   -4.5555 H         1 LLL         0.0878
     54 H23       110.7122  -19.3508   -4.9384 H         1 LLL         0.1998
     55 H24       112.0125  -18.9372   -4.0178 H         1 LLL         0.1998
     56 H25       112.2162  -19.3170   -5.6064 H         1 LLL         0.1998
     57 H26       111.3217  -17.9601   -7.4153 H         1 LLL         0.0681
     58 H27       109.8598  -15.4549   -6.4632 H         1 LLL         0.0649
     59 H28       110.7722  -16.3790   -9.0076 H         1 LLL         0.2100
     60 H29       112.6298  -15.6004   -7.7696 H         1 LLL         0.0681
     61 H30       113.4457  -13.6843   -8.3324 H         1 LLL         0.0939
     62 H31       113.2357  -11.2148   -8.6202 H         1 LLL         0.0703
     63 H32       113.2028  -10.7729   -6.3337 H         1 LLL         0.2103
     64 H33       110.5840  -11.5225   -7.0859 H         1 LLL         0.0907
     65 H34       111.0660   -9.1031   -8.4306 H         1 LLL         0.2015
     66 H35       112.3129   -9.4222   -7.4045 H         1 LLL         0.2015
     67 H36       110.8323  -10.6345  -11.0554 H         1 LLL         0.2105
     68 H37       110.1129  -12.8973  -10.6202 H         1 LLL         0.0591
     69 H38       109.9309  -13.3348   -8.8876 H         1 LLL         0.0591
     70 H39       108.5818  -10.9983  -10.1620 H         1 LLL         0.0260
     71 H40       109.0155   -9.7653   -8.9298 H         1 LLL         0.0260
     72 H41       108.5213  -11.4140   -8.4156 H         1 LLL         0.0260
     73 H42       110.6230   -8.1562   -6.2775 H         1 LLL         0.0777
     74 H43       110.8121   -9.7997   -5.5776 H         1 LLL         0.0777
     75 H44       109.4514   -9.4514   -6.6974 H         1 LLL         0.0777
@<TRIPOS>BOND
     1    2    1 1  
     2    1    3 1  
     3    1    8 1  
     4   16    2 1  
     5    3    4 1  
     6    3    5 1  
     7    5    6 1  
     8    7    6 1  
     9    8    7 1  
    10    7    9 1  
    11    9   10 1  
    12   11   12 1  
    13   13   11 1  
    14   11   19 1  
    15   14   13 1  
    16   14   15 1  
    17   14   16 1  
    18   16   17 1  
    19   17   18 1  
    20   17   19 1  
    21   19   20 1  
    22   20   21 1  
    23   21   22 1  
    24   21   29 1  
    25   22   23 1  
    26   22   24 1  
    27   24   25 1  
    28   24   26 1  
    29   25   31 1  
    30   26   27 1  
    31   26   28 1  
    32   26   30 1  
    33   28   29 1  
    34    1   32 1  
    35    3   33 1  
    36    4   34 1  
    37    4   35 1  
    38    4   36 1  
    39    5   37 1  
    40    5   38 1  
    41    6   39 1  
    42    6   40 1  
    43    7   41 1  
    44    9   42 1  
    45    9   43 1  
    46   10   44 1  
    47   10   45 1  
    48   10   46 1  
    49   11   47 1  
    50   12   48 1  
    51   12   49 1  
    52   12   50 1  
    53   13   51 1  
    54   13   52 1  
    55   14   53 1  
    56   15   54 1  
    57   15   55 1  
    58   15   56 1  
    59   16   57 1  
    60   17   58 1  
    61   18   59 1  
    62   19   60 1  
    63   21   61 1  
    64   22   62 1  
    65   23   63 1  
    66   24   64 1  
    67   25   65 1  
    68   25   66 1  
    69   27   67 1  
    70   28   68 1  
    71   28   69 1  
    72   30   70 1  
    73   30   71 1  
    74   30   72 1  
    75   31   73 1  
    76   31   74 1  
    77   31   75 1  
@<TRIPOS>SUBSTRUCTURE
     1 LLL         1

