### 
### Created by X-TOOL on Mon Aug  2 16:15:20 2021
### 

@<TRIPOS>MOLECULE
6np4_ligand
   74    76     1     0     0
SMALL
GAST_HUCK


@<TRIPOS>ATOM
      1 C11       109.1930  -18.2270   -7.6010 C.3       1 TOY         0.2036
      2 O11       110.1270  -18.1920   -6.5680 O.3       1 TOY        -0.3348
      3 C21       107.8950  -18.8550   -7.0470 C.3       1 TOY         0.0303
      4 N21       107.4670  -18.0790   -5.8470 N.4       1 TOY         0.2244
      5 C31       108.0720  -20.2630   -6.6800 C.3       1 TOY         0.0236
      6 C41       108.6180  -21.0460   -7.8070 C.3       1 TOY         0.0917
      7 O41       109.0240  -22.3460   -7.3560 O.3       1 TOY        -0.3888
      8 C51       109.8670  -20.4080   -8.4020 C.3       1 TOY         0.1272
      9 O51       109.6350  -19.0030   -8.7530 O.3       1 TOY        -0.3352
     10 C61       110.2620  -21.1430   -9.6450 C.3       1 TOY        -0.0059
     11 N61       111.5050  -20.6060  -10.1730 N.4       1 TOY         0.2204
     12 C12       113.2100  -15.4160   -5.6270 C.3       1 TOY         0.0104
     13 N12       114.4780  -14.6970   -5.5020 N.4       1 TOY         0.2228
     14 C22       113.4090  -16.8880   -5.2470 C.3       1 TOY         0.0381
     15 C32       112.0700  -17.6430   -5.3580 C.3       1 TOY         0.0104
     16 N32       112.2720  -19.0560   -5.0700 N.4       1 TOY         0.2228
     17 C42       111.3890  -17.5460   -6.7410 C.3       1 TOY         0.1326
     18 C52       111.3200  -16.0820   -7.1920 C.3       1 TOY         0.1181
     19 O52       110.9370  -16.0170   -8.5430 O.3       1 TOY        -0.3862
     20 C62       112.6650  -15.3460   -7.0530 C.3       1 TOY         0.1325
     21 O62       112.4750  -13.9930   -7.3910 O.3       1 TOY        -0.3371
     22 C13       113.3460  -13.4350   -8.3090 C.3       1 TOY         0.1915
     23 C23       113.4560  -11.9580   -7.9670 C.3       1 TOY         0.1506
     24 O23       113.9100  -11.8740   -6.6260 O.3       1 TOY        -0.3812
     25 C33       112.1470  -11.2580   -8.1240 C.3       1 TOY         0.0360
     26 N33       112.3140   -9.7920   -7.7680 N.4       1 TOY         0.2246
     27 C43       111.5950  -11.4560   -9.5110 C.3       1 TOY         0.1283
     28 O43       110.2950  -10.8800   -9.6140 O.3       1 TOY        -0.3834
     29 C53       111.5220  -12.9540   -9.8340 C.3       1 TOY         0.1159
     30 O53       112.8550  -13.5280   -9.6820 O.3       1 TOY        -0.3403
     31 C63       110.9870  -13.2420  -11.2070 C.3       1 TOY         0.0731
     32 O63       111.7130  -12.5510  -12.1810 O.3       1 TOY        -0.3924
     33 H1        108.9931  -17.1966   -7.9301 H         1 TOY         0.0970
     34 H2        107.1141  -18.7903   -7.8190 H         1 TOY         0.0901
     35 H3        106.6198  -18.4776   -5.4737 H         1 TOY         0.1999
     36 H4        107.3001  -17.1200   -6.1089 H         1 TOY         0.1999
     37 H5        108.1918  -18.1150   -5.1475 H         1 TOY         0.1999
     38 H6        107.0976  -20.6832   -6.3904 H         1 TOY         0.0347
     39 H7        108.7664  -20.3272   -5.8293 H         1 TOY         0.0347
     40 H8        107.8436  -21.1390   -8.5827 H         1 TOY         0.0623
     41 H9        109.3730  -22.8395   -8.0889 H         1 TOY         0.2099
     42 H10       110.6822  -20.4663   -7.6657 H         1 TOY         0.0677
     43 H11       109.4693  -21.0328  -10.3996 H         1 TOY         0.0840
     44 H12       110.3980  -22.2087   -9.4091 H         1 TOY         0.0840
     45 H13       111.7599  -21.1086  -11.0087 H         1 TOY         0.1995
     46 H14       112.2341  -20.7073   -9.4844 H         1 TOY         0.1995
     47 H15       111.3830  -19.6297  -10.3921 H         1 TOY         0.1995
     48 H16       112.4780  -14.9611   -4.9434 H         1 TOY         0.0878
     49 H17       114.8092  -14.7625   -4.5522 H         1 TOY         0.1998
     50 H18       114.3402  -13.7282   -5.7436 H         1 TOY         0.1998
     51 H19       115.1583  -15.1049   -6.1239 H         1 TOY         0.1998
     52 H20       113.7789  -16.9512   -4.2130 H         1 TOY         0.0377
     53 H21       114.1428  -17.3446   -5.9275 H         1 TOY         0.0377
     54 H22       111.3852  -17.2182   -4.6094 H         1 TOY         0.0878
     55 H23       111.3927  -19.5431   -5.1444 H         1 TOY         0.1998
     56 H24       112.6355  -19.1599   -4.1356 H         1 TOY         0.1998
     57 H25       112.9275  -19.4432   -5.7306 H         1 TOY         0.1998
     58 H26       111.9744  -18.1019   -7.4882 H         1 TOY         0.0681
     59 H27       110.5698  -15.5657   -6.5751 H         1 TOY         0.0649
     60 H28       110.8961  -15.1080   -8.8160 H         1 TOY         0.2100
     61 H29       113.3948  -15.8008   -7.7390 H         1 TOY         0.0681
     62 H30       114.3271  -13.9268   -8.2348 H         1 TOY         0.0939
     63 H31       114.1904  -11.4834   -8.6343 H         1 TOY         0.0702
     64 H32       113.9908  -10.9608   -6.3768 H         1 TOY         0.2103
     65 H33       111.4321  -11.6999   -7.4143 H         1 TOY         0.0904
     66 H34       111.4307   -9.3179   -7.8736 H         1 TOY         0.1999
     67 H35       112.9956   -9.3729   -8.3810 H         1 TOY         0.1999
     68 H36       112.6264   -9.7116   -6.8130 H         1 TOY         0.1999
     69 H37       112.2623  -10.9645  -10.2342 H         1 TOY         0.0678
     70 H38       109.9599  -11.0124  -10.4930 H         1 TOY         0.2102
     71 H39       110.8483  -13.4280   -9.1051 H         1 TOY         0.0648
     72 H40       109.9331  -12.9308  -11.2553 H         1 TOY         0.0584
     73 H41       111.0598  -14.3220  -11.4025 H         1 TOY         0.0584
     74 H42       111.6502  -11.6172  -12.0181 H         1 TOY         0.2095
@<TRIPOS>BOND
     1    2    1 1  
     2    1    3 1  
     3    1    9 1  
     4   17    2 1  
     5    3    4 1  
     6    3    5 1  
     7    5    6 1  
     8    6    7 1  
     9    8    6 1  
    10    9    8 1  
    11    8   10 1  
    12   10   11 1  
    13   12   13 1  
    14   14   12 1  
    15   12   20 1  
    16   15   14 1  
    17   15   16 1  
    18   15   17 1  
    19   17   18 1  
    20   18   19 1  
    21   18   20 1  
    22   20   21 1  
    23   21   22 1  
    24   22   23 1  
    25   22   30 1  
    26   23   24 1  
    27   23   25 1  
    28   25   26 1  
    29   25   27 1  
    30   27   28 1  
    31   27   29 1  
    32   29   30 1  
    33   29   31 1  
    34   31   32 1  
    35    1   33 1  
    36    3   34 1  
    37    4   35 1  
    38    4   36 1  
    39    4   37 1  
    40    5   38 1  
    41    5   39 1  
    42    6   40 1  
    43    7   41 1  
    44    8   42 1  
    45   10   43 1  
    46   10   44 1  
    47   11   45 1  
    48   11   46 1  
    49   11   47 1  
    50   12   48 1  
    51   13   49 1  
    52   13   50 1  
    53   13   51 1  
    54   14   52 1  
    55   14   53 1  
    56   15   54 1  
    57   16   55 1  
    58   16   56 1  
    59   16   57 1  
    60   17   58 1  
    61   18   59 1  
    62   19   60 1  
    63   20   61 1  
    64   22   62 1  
    65   23   63 1  
    66   24   64 1  
    67   25   65 1  
    68   26   66 1  
    69   26   67 1  
    70   26   68 1  
    71   27   69 1  
    72   28   70 1  
    73   29   71 1  
    74   31   72 1  
    75   31   73 1  
    76   32   74 1  
@<TRIPOS>SUBSTRUCTURE
     1 TOY         1

