### 
### Created by X-TOOL on Mon Aug  2 16:15:21 2021
### 

@<TRIPOS>MOLECULE
6np5_ligand
   75    77     1     0     0
SMALL
GAST_HUCK


@<TRIPOS>ATOM
      1 C1        107.9070  -18.4270   -7.8090 C.3       1 MOL         0.2061
      2 C2        106.5780  -18.9940   -7.3360 C.3       1 MOL         0.0568
      3 C3        106.7230  -20.3650   -6.7940 C.3       1 MOL         0.1305
      4 C4        107.3160  -21.2890   -7.8210 C.3       1 MOL         0.1176
      5 C5        108.5940  -20.6810   -8.4230 C.3       1 MOL         0.1296
      6 C6        109.0600  -21.4520   -9.6270 C.3       1 MOL        -0.0058
      7 C7        111.9180  -15.7780   -5.8000 C.3       1 MOL         0.0104
      8 C8        111.3820  -15.6340   -7.2250 C.3       1 MOL         0.1325
      9 C9        110.0210  -16.3280   -7.3600 C.3       1 MOL         0.1181
     10 C10       110.0680  -17.8050   -6.9180 C.3       1 MOL         0.1326
     11 C11       110.7490  -17.9770   -5.5550 C.3       1 MOL         0.0104
     12 C12       112.0960  -17.2600   -5.4700 C.3       1 MOL         0.0381
     13 C13       112.1070  -13.6740   -8.3860 C.3       1 MOL         0.1915
     14 C14       112.2150  -12.2040   -7.9970 C.3       1 MOL         0.1506
     15 C15       110.8940  -11.5080   -8.1560 C.3       1 MOL         0.0360
     16 C16       110.4300  -11.6660   -9.5640 C.3       1 MOL         0.1283
     17 C17       110.3230  -13.1410   -9.9420 C.3       1 MOL         0.1159
     18 C18       109.8460  -13.3870  -11.3290 C.3       1 MOL         0.0731
     19 N1        110.2510  -20.8140  -10.1710 N.4       1 MOL         0.2204
     20 N2        110.9130  -19.4150   -5.3020 N.4       1 MOL         0.2228
     21 N3        113.1940  -15.0790   -5.6630 N.4       1 MOL         0.2228
     22 N4        111.0080  -10.0470   -7.8080 N.4       1 MOL         0.2246
     23 O5        108.3650  -19.3190   -8.8860 O.3       1 MOL        -0.3351
     24 O7        105.3980  -20.8340   -6.3730 O.3       1 MOL        -0.3834
     25 O8        107.6680  -22.5720   -7.2850 O.3       1 MOL        -0.3862
     26 O9        108.7960  -18.4200   -6.7470 O.3       1 MOL        -0.3347
     27 O10       109.6200  -16.2610   -8.7160 O.3       1 MOL        -0.3862
     28 O11       111.1950  -14.2650   -7.5130 O.3       1 MOL        -0.3371
     29 O12       111.6470  -13.7870   -9.7620 O.3       1 MOL        -0.3403
     30 O13       112.6200  -12.1780   -6.6470 O.3       1 MOL        -0.3812
     31 O14       109.1270  -11.0850   -9.7470 O.3       1 MOL        -0.3834
     32 O15       110.6610  -12.7580  -12.2450 O.3       1 MOL        -0.3924
     33 N6        106.0380  -18.0630   -6.2890 N.4       1 MOL         0.2263
     34 H1        107.7798  -17.4034   -8.1911 H         1 MOL         0.0970
     35 H2        105.8802  -19.0288   -8.1856 H         1 MOL         0.0927
     36 H3        107.3902  -20.3379   -5.9199 H         1 MOL         0.0679
     37 H4        106.5731  -21.4323   -8.6194 H         1 MOL         0.0649
     38 H5        109.3804  -20.6845   -7.6538 H         1 MOL         0.0678
     39 H6        108.2664  -21.4604  -10.3886 H         1 MOL         0.0840
     40 H7        109.2974  -22.4852   -9.3334 H         1 MOL         0.0840
     41 H8        111.1937  -15.3379   -5.0988 H         1 MOL         0.0878
     42 H9        112.0980  -16.0753   -7.9339 H         1 MOL         0.0681
     43 H10       109.2884  -15.7969   -6.7345 H         1 MOL         0.0649
     44 H11       110.6320  -18.3589   -7.6829 H         1 MOL         0.0681
     45 H12       110.0906  -17.5532   -4.7824 H         1 MOL         0.0878
     46 H13       112.4994  -17.3611   -4.4516 H         1 MOL         0.0377
     47 H14       112.7958  -17.7122   -6.1882 H         1 MOL         0.0377
     48 H15       113.0878  -14.1625   -8.2886 H         1 MOL         0.0939
     49 H16       112.9655  -11.7034   -8.6264 H         1 MOL         0.0702
     50 H17       110.1614  -11.9748   -7.4812 H         1 MOL         0.0904
     51 H18       111.1498  -11.1682  -10.2304 H         1 MOL         0.0678
     52 H19       109.6047  -13.6105   -9.2538 H         1 MOL         0.0648
     53 H20       108.8215  -13.0000  -11.4321 H         1 MOL         0.0584
     54 H21       109.8506  -14.4693  -11.5255 H         1 MOL         0.0584
     55 H22       110.5678  -21.3271  -10.9787 H         1 MOL         0.1995
     56 H23       110.9771  -20.8063   -9.4719 H         1 MOL         0.1995
     57 H24       110.0324  -19.8672  -10.4389 H         1 MOL         0.1995
     58 H25       110.0161  -19.8711   -5.3620 H         1 MOL         0.1998
     59 H26       111.2988  -19.5523   -4.3809 H         1 MOL         0.1998
     60 H27       111.5365  -19.8082   -5.9895 H         1 MOL         0.1998
     61 H28       113.0678  -14.1033   -5.8822 H         1 MOL         0.1998
     62 H29       113.8672  -15.4813   -6.2963 H         1 MOL         0.1998
     63 H30       113.5271  -15.1702   -4.7160 H         1 MOL         0.1998
     64 H31       111.3221   -9.9522   -6.8549 H         1 MOL         0.1999
     65 H32       110.1074   -9.6059   -7.9104 H         1 MOL         0.1999
     66 H33       111.6708   -9.6052   -8.4257 H         1 MOL         0.1999
     67 H34       105.4759  -21.7023   -5.9955 H         1 MOL         0.2102
     68 H35       108.3337  -22.4627   -6.6161 H         1 MOL         0.2100
     69 H36       109.5900  -15.3524   -8.9917 H         1 MOL         0.2100
     70 H37       112.7067  -11.2763   -6.3609 H         1 MOL         0.2103
     71 H38       108.5017  -11.5297   -9.1869 H         1 MOL         0.2102
     72 H39       110.6573  -11.8224  -12.0805 H         1 MOL         0.2095
     73 H40       105.9470  -17.1372   -6.6773 H         1 MOL         0.2000
     74 H41       106.6697  -18.0375   -5.5040 H         1 MOL         0.2000
     75 H42       105.1347  -18.3892   -5.9829 H         1 MOL         0.2000
@<TRIPOS>BOND
     1    1    2 1  
     2    1   23 1  
     3   26    1 1  
     4    2    3 1  
     5    2   33 1  
     6    3    4 1  
     7    3   24 1  
     8    5    4 1  
     9    4   25 1  
    10    5    6 1  
    11   23    5 1  
    12    6   19 1  
    13    8    7 1  
    14    7   12 1  
    15    7   21 1  
    16    8    9 1  
    17   28    8 1  
    18    9   10 1  
    19    9   27 1  
    20   10   11 1  
    21   10   26 1  
    22   12   11 1  
    23   11   20 1  
    24   13   14 1  
    25   13   28 1  
    26   13   29 1  
    27   14   15 1  
    28   14   30 1  
    29   15   16 1  
    30   15   22 1  
    31   16   17 1  
    32   16   31 1  
    33   17   18 1  
    34   17   29 1  
    35   18   32 1  
    36    1   34 1  
    37    2   35 1  
    38    3   36 1  
    39    4   37 1  
    40    5   38 1  
    41    6   39 1  
    42    6   40 1  
    43    7   41 1  
    44    8   42 1  
    45    9   43 1  
    46   10   44 1  
    47   11   45 1  
    48   12   46 1  
    49   12   47 1  
    50   13   48 1  
    51   14   49 1  
    52   15   50 1  
    53   16   51 1  
    54   17   52 1  
    55   18   53 1  
    56   18   54 1  
    57   19   55 1  
    58   19   56 1  
    59   19   57 1  
    60   20   58 1  
    61   20   59 1  
    62   20   60 1  
    63   21   61 1  
    64   21   62 1  
    65   21   63 1  
    66   22   64 1  
    67   22   65 1  
    68   22   66 1  
    69   24   67 1  
    70   25   68 1  
    71   27   69 1  
    72   30   70 1  
    73   31   71 1  
    74   32   72 1  
    75   33   73 1  
    76   33   74 1  
    77   33   75 1  
@<TRIPOS>SUBSTRUCTURE
     1 MOL         1

