### 
### Created by X-TOOL on Mon Aug  2 16:11:01 2021
### 

@<TRIPOS>MOLECULE
6npe_ligand
   28    29     1     0     0
SMALL
GAST_HUCK


@<TRIPOS>ATOM
      1 C10        14.4560    8.5460  -35.0130 C.3       1 KWD         0.0332
      2 C12        12.3060    7.1760  -34.7630 C.2       1 KWD         0.1842
      3 C14         9.9390    7.5560  -35.1050 C.2       1 KWD         0.2442
      4 C16         8.6410    6.8390  -34.8880 C.3       1 KWD         0.1695
      5 C17         7.6780    7.7740  -34.3110 C.1       1 KWD         0.1123
      6 C2         17.9110    5.4320  -32.7510 C.ar      1 KWD         0.0469
      7 C3         18.0180    6.6880  -33.3110 C.ar      1 KWD        -0.0541
      8 C4         16.8980    7.3060  -33.8220 C.ar      1 KWD        -0.0592
      9 C5         15.6980    6.6360  -33.7560 C.ar      1 KWD        -0.0356
     10 C6         15.5990    5.3830  -33.1940 C.ar      1 KWD        -0.0455
     11 C7         16.7110    4.7650  -32.6850 C.ar      1 KWD         0.0477
     12 C9         14.4570    7.2320  -34.2750 C.3       1 KWD         0.0307
     13 N13        11.0100    6.7270  -34.9040 N.am      1 KWD        -0.1882
     14 N18         6.9230    8.5260  -33.8490 N.1       1 KWD        -0.3008
     15 N19        13.2450    6.4260  -34.2910 N.2       1 KWD        -0.3518
     16 O15        10.0150    8.7360  -35.4080 O.2       1 KWD        -0.3762
     17 S11        12.6910    8.8170  -35.2390 S.3       1 KWD        -0.0270
     18 CL1        19.3150    4.6650  -32.1200 Cl        1 KWD        -0.0764
     19 CL8        16.5920    3.1810  -31.9700 Cl        1 KWD        -0.0718
     20 H1         14.9787    8.4672  -35.9777 H         1 KWD         0.0440
     21 H2         14.9132    9.3462  -34.4125 H         1 KWD         0.0440
     22 H3          8.7952    5.9952  -34.1994 H         1 KWD         0.0809
     23 H4          8.2609    6.4631  -35.8494 H         1 KWD         0.0809
     24 H5         18.9797    7.1868  -33.3488 H         1 KWD         0.0606
     25 H6         16.9603    8.2937  -34.2643 H         1 KWD         0.0559
     26 H7         14.6378    4.8835  -33.1541 H         1 KWD         0.0562
     27 H8         14.2135    7.7052  -33.3123 H         1 KWD         0.0501
     28 H9         10.8432    5.7421  -34.8569 H         1 KWD         0.2449
@<TRIPOS>BOND
     1   12    1 1  
     2    1   17 1  
     3    2   13 1  
     4    2   15 2  
     5   17    2 1  
     6    3    4 1  
     7   13    3 am 
     8    3   16 2  
     9    4    5 1  
    10    5   14 3  
    11    7    6 ar 
    12    6   11 ar 
    13    6   18 1  
    14    8    7 ar 
    15    9    8 ar 
    16    9   10 ar 
    17    9   12 1  
    18   10   11 ar 
    19   11   19 1  
    20   12   15 1  
    21    1   20 1  
    22    1   21 1  
    23    4   22 1  
    24    4   23 1  
    25    7   24 1  
    26    8   25 1  
    27   10   26 1  
    28   12   27 1  
    29   13   28 1  
@<TRIPOS>SUBSTRUCTURE
     1 KWD         1

