### 
### Created by X-TOOL on Mon Aug  2 16:11:01 2021
### 

@<TRIPOS>MOLECULE
6npi_ligand
   22    23     1     0     0
SMALL
GAST_HUCK


@<TRIPOS>ATOM
      1 C13       -10.7310  -33.5960  -18.2900 C.2       1 MOL        -0.0839
      2 C01        -7.2910  -31.1680  -14.6640 C.ar      1 MOL        -0.0631
      3 C02        -7.9880  -31.7850  -15.6910 C.ar      1 MOL        -0.0230
      4 C03        -9.3240  -31.4930  -15.8910 C.ar      1 MOL         0.1086
      5 C04        -9.9590  -30.5860  -15.0350 C.ar      1 MOL         0.0449
      6 C05        -9.2540  -29.9770  -14.0120 C.ar      1 MOL        -0.0514
      7 C06        -7.9220  -30.2680  -13.8340 C.ar      1 MOL        -0.0649
      8 C07       -11.4200  -30.1720  -15.1330 C.2       1 MOL         0.0614
      9 O08       -12.3340  -31.0050  -14.8910 O.co2     1 MOL        -0.5629
     10 O09       -11.6870  -28.9830  -15.4410 O.co2     1 MOL        -0.5629
     11 N10        -9.9600  -32.0800  -16.9000 N.pl3     1 MOL        -0.2388
     12 C11       -10.6310  -31.4300  -17.8450 C.2       1 MOL         0.0294
     13 C12       -11.1550  -32.3560  -18.7340 C.2       1 MOL        -0.0839
     14 C14        -9.9760  -33.3800  -17.1460 C.2       1 MOL         0.0294
     15 H1        -10.9485  -34.5585  -18.7508 H         1 MOL         0.0285
     16 H2         -6.2419  -31.3954  -14.5130 H         1 MOL         0.0621
     17 H3         -7.4856  -32.4960  -16.3368 H         1 MOL         0.0594
     18 H4         -9.7499  -29.2732  -13.3534 H         1 MOL         0.0634
     19 H5         -7.3662  -29.7871  -13.0372 H         1 MOL         0.0566
     20 H6        -10.7496  -30.3495  -17.9103 H         1 MOL         0.0812
     21 H7        -11.7748  -32.1492  -19.6053 H         1 MOL         0.0285
     22 H8         -9.4818  -34.1480  -16.5529 H         1 MOL         0.0812
@<TRIPOS>BOND
     1    1   13 1  
     2   14    1 2  
     3    3    2 ar 
     4    2    7 ar 
     5    4    3 ar 
     6    4    5 ar 
     7   11    4 1  
     8    5    6 ar 
     9    5    8 1  
    10    6    7 ar 
    11    8    9 ar 
    12    8   10 ar 
    13   11   12 1  
    14   11   14 1  
    15   12   13 2  
    16    1   15 1  
    17    2   16 1  
    18    3   17 1  
    19    6   18 1  
    20    7   19 1  
    21   12   20 1  
    22   13   21 1  
    23   14   22 1  
@<TRIPOS>SUBSTRUCTURE
     1 MOL         1

