### 
### Created by X-TOOL on Mon Aug  2 16:15:21 2021
### 

@<TRIPOS>MOLECULE
6npm_ligand
   25    26     1     0     0
SMALL
GAST_HUCK


@<TRIPOS>ATOM
      1 C12        -6.0570  -35.1770  -17.0490 C.ar      1 KVD         0.0268
      2 C13        -4.9650  -34.9190  -17.8600 C.ar      1 KVD        -0.0458
      3 C14        -4.3160  -35.9630  -18.4790 C.ar      1 KVD        -0.0603
      4 C15        -4.7520  -37.2550  -18.2710 C.ar      1 KVD        -0.0614
      5 C16        -5.8250  -37.5120  -17.4480 C.ar      1 KVD        -0.0603
      6 C17        -6.4930  -36.4660  -16.8300 C.ar      1 KVD        -0.0458
      7 C02       -11.7670  -30.8350  -15.2730 C.2       1 KVD         0.0702
      8 C04       -10.3090  -31.0340  -14.9130 C.ar      1 KVD         0.0385
      9 C05        -9.7000  -30.2470  -13.9430 C.ar      1 KVD         0.0249
     10 C07        -7.6980  -31.3250  -14.2090 C.ar      1 KVD         0.0288
     11 C08        -8.2480  -32.1350  -15.1900 C.ar      1 KVD         0.0559
     12 C09        -9.5670  -31.9980  -15.5540 C.ar      1 KVD        -0.0133
     13 C10        -7.3930  -33.1880  -15.8480 C.1       1 KVD        -0.0519
     14 C11        -6.7840  -34.0310  -16.3890 C.1       1 KVD        -0.0577
     15 N06        -8.4300  -30.4070  -13.6090 N.ar      1 KVD        -0.2920
     16 O01       -12.4370  -29.9970  -14.6180 O.co2     1 KVD        -0.5587
     17 O03       -12.2790  -31.5040  -16.2210 O.co2     1 KVD        -0.5587
     18 H1         -4.6232  -33.9008  -18.0066 H         1 KVD         0.0632
     19 H2         -3.4676  -35.7711  -19.1259 H         1 KVD         0.0619
     20 H3         -4.2438  -38.0774  -18.7613 H         1 KVD         0.0620
     21 H4         -6.1481  -38.5335  -17.2829 H         1 KVD         0.0619
     22 H5         -7.3433  -36.6586  -16.1858 H         1 KVD         0.0632
     23 H6        -10.2824  -29.4798  -13.4457 H         1 KVD         0.0852
     24 H7         -6.6570  -31.4473  -13.9326 H         1 KVD         0.0855
     25 H8        -10.0063  -32.6277  -16.3192 H         1 KVD         0.0780
@<TRIPOS>BOND
     1    1    2 ar 
     2    1    6 ar 
     3   14    1 1  
     4    2    3 ar 
     5    3    4 ar 
     6    5    4 ar 
     7    6    5 ar 
     8    8    7 1  
     9    7   16 ar 
    10    7   17 ar 
    11    8    9 ar 
    12   12    8 ar 
    13   15    9 ar 
    14   11   10 ar 
    15   10   15 ar 
    16   11   12 ar 
    17   13   11 1  
    18   13   14 3  
    19    2   18 1  
    20    3   19 1  
    21    4   20 1  
    22    5   21 1  
    23    6   22 1  
    24    9   23 1  
    25   10   24 1  
    26   12   25 1  
@<TRIPOS>SUBSTRUCTURE
     1 KVD         1

