### 
### Created by X-TOOL on Mon Aug  2 16:15:22 2021
### 

@<TRIPOS>MOLECULE
6npp_ligand
   34    36     1     0     0
SMALL
GAST_HUCK


@<TRIPOS>ATOM
      1 C22        -6.5350  -36.8770  -16.5770 C.ar      1 KWG        -0.0470
      2 C20        -4.8840  -37.7310  -18.0580 C.ar      1 KWG        -0.0621
      3 C11       -10.8700  -32.2010  -17.3740 C.2       1 KWG         0.0300
      4 C12       -11.6020  -33.1330  -18.0920 C.2       1 KWG        -0.0837
      5 C13       -11.4560  -34.3490  -17.4340 C.2       1 KWG        -0.0837
      6 C17        -6.2180  -35.6200  -17.0230 C.ar      1 KWG         0.0233
      7 C02       -11.5030  -30.6370  -14.9150 C.2       1 KWG         0.0615
      8 C04       -10.0690  -31.0850  -14.7300 C.ar      1 KWG         0.0470
      9 C05        -9.3070  -30.3800  -13.8180 C.ar      1 KWG        -0.0510
     10 C06        -7.9970  -30.7140  -13.6000 C.ar      1 KWG        -0.0635
     11 C07        -7.4390  -31.7790  -14.2890 C.ar      1 KWG        -0.0468
     12 C08        -8.2150  -32.4650  -15.1930 C.ar      1 KWG         0.0651
     13 C09        -9.5310  -32.1470  -15.4540 C.ar      1 KWG         0.1260
     14 C14       -10.6170  -34.1070  -16.3540 C.2       1 KWG         0.0300
     15 C15        -7.5580  -33.5890  -15.9360 C.1       1 KWG        -0.0620
     16 C16        -6.9680  -34.4640  -16.4330 C.1       1 KWG        -0.0648
     17 C18        -5.2520  -35.3840  -17.9790 C.ar      1 KWG        -0.0470
     18 C19        -4.5750  -36.4670  -18.5020 C.ar      1 KWG        -0.0610
     19 C21        -5.8640  -37.9520  -17.1120 C.ar      1 KWG        -0.0610
     20 N10       -10.2890  -32.8150  -16.3470 N.pl3     1 KWG        -0.2369
     21 O01       -12.4210  -31.4310  -14.5970 O.co2     1 KWG        -0.5630
     22 O03       -11.7110  -29.4880  -15.3930 O.co2     1 KWG        -0.5630
     23 H1         -7.2973  -37.0205  -15.8198 H         1 KWG         0.0626
     24 H2         -4.3423  -38.5782  -18.4627 H         1 KWG         0.0614
     25 H3        -10.7845  -31.1416  -17.6112 H         1 KWG         0.0812
     26 H4        -12.1798  -32.9487  -18.9965 H         1 KWG         0.0286
     27 H5        -11.9086  -35.3002  -17.7100 H         1 KWG         0.0286
     28 H6         -9.7499  -29.5558  -13.2706 H         1 KWG         0.0636
     29 H7         -7.4004  -30.1490  -12.8930 H         1 KWG         0.0569
     30 H8         -6.4079  -32.0664  -14.1180 H         1 KWG         0.0633
     31 H9        -10.2823  -34.8503  -15.6319 H         1 KWG         0.0812
     32 H10        -5.0308  -34.3759  -18.3103 H         1 KWG         0.0626
     33 H11        -3.8082  -36.3227  -19.2545 H         1 KWG         0.0617
     34 H12        -6.1022  -38.9607  -16.7943 H         1 KWG         0.0617
@<TRIPOS>BOND
     1    6    1 ar 
     2    1   19 ar 
     3    2   18 ar 
     4   19    2 ar 
     5    3    4 2  
     6   20    3 1  
     7    5    4 1  
     8   14    5 2  
     9   16    6 1  
    10    6   17 ar 
    11    8    7 1  
    12    7   21 ar 
    13    7   22 ar 
    14    8    9 ar 
    15   13    8 ar 
    16   10    9 ar 
    17   11   10 ar 
    18   12   11 ar 
    19   12   13 ar 
    20   15   12 1  
    21   13   20 1  
    22   20   14 1  
    23   15   16 3  
    24   17   18 ar 
    25    1   23 1  
    26    2   24 1  
    27    3   25 1  
    28    4   26 1  
    29    5   27 1  
    30    9   28 1  
    31   10   29 1  
    32   11   30 1  
    33   14   31 1  
    34   17   32 1  
    35   18   33 1  
    36   19   34 1  
@<TRIPOS>SUBSTRUCTURE
     1 KWG         1

