### 
### Created by X-TOOL on Mon Aug  2 16:15:22 2021
### 

@<TRIPOS>MOLECULE
6npt_ligand
   55    58     1     0     0
SMALL
GAST_HUCK


@<TRIPOS>ATOM
      1 C1        -19.0350  -19.4600  -12.3810 C.3       1 KWY        -0.0832
      2 C2        -18.3730  -20.0820  -13.6230 C.3       1 KWY        -0.0436
      3 C3        -19.3850  -20.0080  -14.7920 C.3       1 KWY        -0.0832
      4 C4        -17.1160  -19.2930  -14.0060 C.3       1 KWY        -0.0832
      5 C5        -17.9530  -21.4900  -13.2580 C.ar      1 KWY        -0.0452
      6 C6        -17.1390  -21.6670  -12.1480 C.ar      1 KWY        -0.0356
      7 C7        -16.7180  -22.9170  -11.7590 C.ar      1 KWY        -0.0138
      8 C8        -17.0960  -24.0180  -12.5150 C.ar      1 KWY         0.0840
      9 C11       -16.7180  -25.3770  -12.1280 C.2       1 KWY         0.2569
     10 N13       -16.6630  -26.3210  -13.0810 N.am      1 KWY        -0.1984
     11 C15       -15.3350  -28.2470  -12.2890 C.2       1 KWY        -0.0224
     12 C16       -15.6360  -29.6190  -12.2070 C.2       1 KWY         0.0145
     13 C19       -18.6440  -28.3750  -13.5680 C.ar      1 KWY         0.1089
     14 C21       -20.0650  -27.1930  -15.1200 C.ar      1 KWY        -0.0667
     15 C23       -21.0000  -28.8200  -13.6290 C.ar      1 KWY        -0.0667
     16 C24       -19.7500  -29.0700  -13.0890 C.ar      1 KWY        -0.0271
     17 C27       -12.8880  -31.4360  -10.4150 C.ar      1 KWY        -0.0619
     18 C30       -15.0210  -32.0130  -12.0770 C.ar      1 KWY        -0.0551
     19 C9        -17.9330  -23.8480  -13.6220 C.ar      1 KWY        -0.0138
     20 C10       -18.3360  -22.5990  -13.9950 C.ar      1 KWY        -0.0356
     21 O12       -16.5220  -25.6380  -10.9620 O.2       1 KWY        -0.3595
     22 C14       -16.4240  -27.6520  -12.8080 C.2       1 KWY         0.2000
     23 N17       -16.8530  -29.8250  -12.6390 N.2       1 KWY        -0.2245
     24 N18       -17.3730  -28.6050  -13.0350 N.pl3     1 KWY        -0.1427
     25 C20       -18.8180  -27.4430  -14.5880 C.ar      1 KWY        -0.0271
     26 C22       -21.1570  -27.8850  -14.6400 C.ar      1 KWY        -0.0695
     27 C25       -14.7580  -30.6920  -11.7070 C.ar      1 KWY        -0.0194
     28 C26       -13.6830  -30.4050  -10.8690 C.ar      1 KWY        -0.0551
     29 C28       -13.1500  -32.7430  -10.7830 C.ar      1 KWY        -0.0624
     30 C29       -14.2150  -33.0320  -11.6140 C.ar      1 KWY        -0.0619
     31 H1        -19.3537  -18.4327  -12.6112 H         1 KWY         0.0139
     32 H2        -18.3136  -19.4427  -11.5508 H         1 KWY         0.0139
     33 H3        -19.9110  -20.0598  -12.0932 H         1 KWY         0.0139
     34 H4        -18.9353  -20.4474  -15.6946 H         1 KWY         0.0139
     35 H5        -19.6447  -18.9569  -14.9862 H         1 KWY         0.0139
     36 H6        -20.2941  -20.5672  -14.5259 H         1 KWY         0.0139
     37 H7        -16.3891  -19.3388  -13.1817 H         1 KWY         0.0139
     38 H8        -17.3859  -18.2443  -14.1990 H         1 KWY         0.0139
     39 H9        -16.6708  -19.7298  -14.9121 H         1 KWY         0.0139
     40 H10       -16.8282  -20.8009  -11.5750 H         1 KWY         0.0854
     41 H11       -16.1010  -23.0405  -10.8763 H         1 KWY         0.0741
     42 H12       -16.8017  -26.0467  -14.0326 H         1 KWY         0.2337
     43 H13       -14.4057  -27.7633  -11.9916 H         1 KWY         0.0171
     44 H14       -20.1861  -26.4591  -15.9085 H         1 KWY         0.0598
     45 H15       -21.8634  -29.3602  -13.2579 H         1 KWY         0.0598
     46 H16       -19.6337  -29.8023  -12.2983 H         1 KWY         0.0578
     47 H17       -12.0493  -31.2199   -9.7631 H         1 KWY         0.0616
     48 H18       -15.8584  -32.2372  -12.7279 H         1 KWY         0.0617
     49 H19       -18.2633  -24.7125  -14.1865 H         1 KWY         0.0741
     50 H20       -18.9594  -22.4736  -14.8729 H         1 KWY         0.0854
     51 H21       -17.9581  -26.9049  -14.9702 H         1 KWY         0.0578
     52 H22       -22.1408  -27.6972  -15.0545 H         1 KWY         0.0551
     53 H23       -13.4737  -29.3823  -10.5770 H         1 KWY         0.0617
     54 H24       -12.5172  -33.5439  -10.4180 H         1 KWY         0.0612
     55 H25       -14.4168  -34.0575  -11.9016 H         1 KWY         0.0616
@<TRIPOS>BOND
     1    2    1 1  
     2    2    3 1  
     3    2    4 1  
     4    5    2 1  
     5    6    5 ar 
     6   20    5 ar 
     7    7    6 ar 
     8    8    7 ar 
     9    9    8 1  
    10    8   19 ar 
    11   10    9 am 
    12    9   21 2  
    13   22   10 1  
    14   12   11 1  
    15   11   22 2  
    16   12   23 2  
    17   27   12 1  
    18   13   16 ar 
    19   24   13 1  
    20   13   25 ar 
    21   25   14 ar 
    22   14   26 ar 
    23   16   15 ar 
    24   15   26 ar 
    25   28   17 ar 
    26   17   29 ar 
    27   27   18 ar 
    28   18   30 ar 
    29   19   20 ar 
    30   24   22 1  
    31   23   24 1  
    32   27   28 ar 
    33   29   30 ar 
    34    1   31 1  
    35    1   32 1  
    36    1   33 1  
    37    3   34 1  
    38    3   35 1  
    39    3   36 1  
    40    4   37 1  
    41    4   38 1  
    42    4   39 1  
    43    6   40 1  
    44    7   41 1  
    45   10   42 1  
    46   11   43 1  
    47   14   44 1  
    48   15   45 1  
    49   16   46 1  
    50   17   47 1  
    51   18   48 1  
    52   19   49 1  
    53   20   50 1  
    54   25   51 1  
    55   26   52 1  
    56   28   53 1  
    57   29   54 1  
    58   30   55 1  
@<TRIPOS>SUBSTRUCTURE
     1 KWY         1

