### 
### Created by X-TOOL on Mon Aug  2 16:11:01 2021
### 

@<TRIPOS>MOLECULE
6npu_ligand
   29    30     1     0     0
SMALL
GAST_HUCK


@<TRIPOS>ATOM
      1 C5         12.2410    6.9680  -34.9940 C.3       1 KWV         0.1816
      2 C8         14.1920    8.3460  -34.8850 C.2       1 KWV         0.1157
      3 C10        15.6730    6.5510  -34.0250 C.ar      1 KWV         0.1232
      4 C13        17.8960    5.4840  -32.8150 C.ar      1 KWV         0.0867
      5 C15        16.7290    4.7410  -32.8560 C.ar      1 KWV         0.0852
      6 C17        15.6020    5.2810  -33.4600 C.ar      1 KWV         0.0109
      7 C1          8.3360    6.7320  -34.4640 C.3       1 KWV         0.0257
      8 C11        16.8300    7.2970  -33.9760 C.ar      1 KWV        -0.0024
      9 C12        17.9610    6.7550  -33.3640 C.ar      1 KWV        -0.0160
     10 C2          9.7050    7.2250  -34.9310 C.2       1 KWV         0.1753
     11 C9         12.6550    8.4610  -34.8080 C.3       1 KWV         0.0969
     12 N4         10.8950    6.5290  -34.5160 N.am      1 KWV        -0.2539
     13 N6         13.1180    6.3230  -34.2880 N.pl3     1 KWV        -0.1968
     14 N7         14.4880    7.0650  -34.6330 N.2       1 KWV        -0.1688
     15 O3          9.8190    8.1760  -35.6330 O.2       1 KWV        -0.3973
     16 CL14       19.3270    4.7790  -32.0400 Cl        1 KWV        -0.0390
     17 CL16       16.6970    3.0940  -32.1480 Cl        1 KWV        -0.0603
     18 H1         12.3234    6.7108  -36.0603 H         1 KWV         0.0968
     19 H2         14.8962    9.1480  -35.1014 H         1 KWV         0.1777
     20 H3         14.6755    4.7191  -33.4914 H         1 KWV         0.0818
     21 H4          7.5514    7.3826  -34.8776 H         1 KWV         0.0467
     22 H5          8.2922    6.7578  -33.3652 H         1 KWV         0.0467
     23 H6          8.1789    5.7008  -34.8131 H         1 KWV         0.0467
     24 H7         16.8615    8.2912  -34.4068 H         1 KWV         0.0824
     25 H8         18.8829    7.3234  -33.3184 H         1 KWV         0.0713
     26 H9         12.3267    8.8540  -33.8345 H         1 KWV         0.0800
     27 H10        12.2556    9.0953  -35.6131 H         1 KWV         0.0800
     28 H11        10.8200    5.7436  -33.9015 H         1 KWV         0.1883
     29 H12        12.9663    5.5237  -33.6563 H         1 KWV         0.2350
@<TRIPOS>BOND
     1    1   11 1  
     2   12    1 1  
     3    1   13 1  
     4   11    2 1  
     5    2   14 2  
     6    3    6 ar 
     7    3    8 ar 
     8   14    3 1  
     9    5    4 ar 
    10    9    4 ar 
    11    4   16 1  
    12    6    5 ar 
    13    5   17 1  
    14   10    7 1  
    15    8    9 ar 
    16   10   12 am 
    17   10   15 2  
    18   13   14 1  
    19    1   18 1  
    20    2   19 1  
    21    6   20 1  
    22    7   21 1  
    23    7   22 1  
    24    7   23 1  
    25    8   24 1  
    26    9   25 1  
    27   11   26 1  
    28   11   27 1  
    29   12   28 1  
    30   13   29 1  
@<TRIPOS>SUBSTRUCTURE
     1 KWV         1

