### 
### Created by X-TOOL on Mon Aug  2 16:11:01 2021
### 

@<TRIPOS>MOLECULE
6npv_ligand
   41    43     1     0     0
SMALL
GAST_HUCK


@<TRIPOS>ATOM
      1 C1         16.3640    7.3580  -33.8200 C.ar      1 KWP        -0.0417
      2 C10        17.4580    5.5600  -32.6950 C.ar      1 KWP         0.0389
      3 C11        16.3290    4.7810  -32.8320 C.ar      1 KWP         0.0418
      4 C12        11.8090    7.0660  -34.7040 C.2       1 KWP         0.1298
      5 C13         9.4870    7.2660  -35.4130 C.2       1 KWP         0.2479
      6 C14        13.7580    8.4460  -34.7410 C.3       1 KWP         0.0640
      7 C15        12.2500    8.4390  -34.9680 C.3       1 KWP         0.0579
      8 C16        11.5600    9.3290  -33.9720 C.3       1 KWP        -0.0096
      9 C17        12.1130   10.7300  -34.0080 C.3       1 KWP         0.0467
     10 C2         17.4750    6.8480  -33.1820 C.ar      1 KWP        -0.0601
     11 C3          7.1530    6.9520  -36.0650 C.ar      1 KWP        -0.0136
     12 C4          7.9110    6.0420  -33.9930 C.ar      1 KWP        -0.0136
     13 C5         15.2190    5.3010  -33.4610 C.ar      1 KWP        -0.0281
     14 C6          5.9160    6.4350  -35.7630 C.ar      1 KWP         0.0168
     15 C7          6.6330    5.5730  -33.8000 C.ar      1 KWP         0.0168
     16 C8          8.1560    6.7400  -35.1470 C.ar      1 KWP         0.0768
     17 C9         15.2300    6.5900  -33.9590 C.ar      1 KWP         0.0600
     18 N18         5.6170    5.7490  -34.6540 N.ar      1 KWP        -0.2919
     19 N19        14.0710    7.0370  -34.6150 N.pl3     1 KWP        -0.2411
     20 N20        12.8480    6.3000  -34.4850 N.2       1 KWP        -0.2391
     21 N21        10.5330    6.6850  -34.6550 N.am      1 KWP        -0.2134
     22 O22         9.7130    8.1360  -36.2410 O.2       1 KWP        -0.3655
     23 O23        11.5600   11.3700  -35.1430 O.3       1 KWP        -0.3948
     24 CL24       18.8480    4.9030  -31.8970 Cl        1 KWP        -0.0832
     25 CL25       16.3160    3.1620  -32.2050 Cl        1 KWP        -0.0738
     26 H1         16.3837    8.3678  -34.2137 H         1 KWP         0.0514
     27 H2         14.0178    8.9930  -33.8227 H         1 KWP         0.0588
     28 H3         14.2852    8.8939  -35.5962 H         1 KWP         0.0588
     29 H4         12.0082    8.7494  -35.9952 H         1 KWP         0.0551
     30 H5         11.7023    8.9143  -32.9632 H         1 KWP         0.0317
     31 H6         10.4858    9.3626  -34.2065 H         1 KWP         0.0317
     32 H7         13.2096   10.7002  -34.0893 H         1 KWP         0.0559
     33 H8         11.8276   11.2713  -33.0939 H         1 KWP         0.0559
     34 H9         18.3614    7.4607  -33.0639 H         1 KWP         0.0586
     35 H10         7.3302    7.5008  -36.9829 H         1 KWP         0.0761
     36 H11         8.6926    5.8670  -33.2626 H         1 KWP         0.0761
     37 H12        14.3279    4.6928  -33.5663 H         1 KWP         0.0517
     38 H13         5.1193    6.5958  -36.4803 H         1 KWP         0.0837
     39 H14         6.4333    5.0200  -32.8893 H         1 KWP         0.0837
     40 H15        10.2967    5.9342  -34.0381 H         1 KWP         0.2334
     41 H16        11.8896   12.2594  -35.1956 H         1 KWP         0.2094
@<TRIPOS>BOND
     1    1   10 ar 
     2   17    1 ar 
     3    3    2 ar 
     4   10    2 ar 
     5    2   24 1  
     6   13    3 ar 
     7    3   25 1  
     8    7    4 1  
     9    4   20 2  
    10    4   21 1  
    11    5   16 1  
    12   21    5 am 
    13    5   22 2  
    14    6    7 1  
    15   19    6 1  
    16    7    8 1  
    17    8    9 1  
    18    9   23 1  
    19   11   14 ar 
    20   16   11 ar 
    21   12   15 ar 
    22   16   12 ar 
    23   17   13 ar 
    24   14   18 ar 
    25   15   18 ar 
    26   17   19 1  
    27   19   20 1  
    28    1   26 1  
    29    6   27 1  
    30    6   28 1  
    31    7   29 1  
    32    8   30 1  
    33    8   31 1  
    34    9   32 1  
    35    9   33 1  
    36   10   34 1  
    37   11   35 1  
    38   12   36 1  
    39   13   37 1  
    40   14   38 1  
    41   15   39 1  
    42   21   40 1  
    43   23   41 1  
@<TRIPOS>SUBSTRUCTURE
     1 KWP         1

