### 
### Created by X-TOOL on Mon Aug  2 16:11:01 2021
### 

@<TRIPOS>MOLECULE
6nrf_ligand
   60    65     1     0     0
SMALL
GAST_HUCK


@<TRIPOS>ATOM
      1 N1         23.1330  -11.6420    6.6690 N.am      1 KYV        -0.2691
      2 N3         20.1040  -14.6360    9.4930 N.pl3     1 KYV        -0.2301
      3 C3         28.8910   -2.6780   11.2140 C.ar      1 KYV        -0.0608
      4 N4         21.8010  -14.1860   10.8780 N.2       1 KYV        -0.3136
      5 N2         21.8500  -13.1990    8.6890 N.pl3     1 KYV        -0.2573
      6 C8         27.5900   -6.8970    7.2140 C.2       1 KYV        -0.0085
      7 C9         26.4770   -7.8010    6.9420 C.ar      1 KYV        -0.0266
      8 O1         29.5740   -4.6610    7.1470 O.2       1 KYV        -0.3664
      9 C1         27.0320   -4.2310   11.2090 C.ar      1 KYV         0.0884
     10 C2         27.7840   -3.2370   11.8400 C.ar      1 KYV        -0.0450
     11 C10        25.2890   -7.8820    7.6740 C.ar      1 KYV        -0.0539
     12 C4         29.2670   -3.0890    9.9410 C.ar      1 KYV        -0.0474
     13 C5         28.5310   -4.0860    9.3010 C.ar      1 KYV         0.0755
     14 C6         28.7590   -4.8560    8.0590 C.2       1 KYV         0.1958
     15 C7         27.7410   -5.9100    8.1010 C.2       1 KYV         0.1833
     16 C12        24.4420   -9.6130    6.2200 C.ar      1 KYV         0.0461
     17 C11        24.2890   -8.7720    7.3190 C.ar      1 KYV        -0.0453
     18 O2         22.8580  -10.5140    4.7570 O.2       1 KYV        -0.3865
     19 C13        23.4020  -10.6170    5.8340 C.2       1 KYV         0.2045
     20 C24        23.7770  -11.8780    7.9710 C.3       1 KYV         0.0542
     21 C23        22.7320  -12.0820    9.0500 C.3       1 KYV         0.0569
     22 C16        21.2500  -14.0040    9.6490 C.2       1 KYV         0.2158
     23 C22        20.9370  -14.9950   11.5900 C.ar      1 KYV         0.0112
     24 C21        20.9630  -15.4890   12.8890 C.ar      1 KYV        -0.0694
     25 C20        19.9070  -16.2850   13.3100 C.ar      1 KYV        -0.0809
     26 C19        18.8490  -16.5750   12.4540 C.ar      1 KYV        -0.0787
     27 C18        18.8260  -16.0760   11.1550 C.ar      1 KYV        -0.0448
     28 C17        19.8840  -15.2760   10.7200 C.ar      1 KYV         0.0750
     29 C15        21.1640  -12.9180    7.4210 C.3       1 KYV         0.0569
     30 C14        22.1800  -12.7010    6.3060 C.3       1 KYV         0.0542
     31 C25        25.6130   -9.5260    5.4760 C.ar      1 KYV        -0.0453
     32 C26        26.6130   -8.6380    5.8320 C.ar      1 KYV        -0.0539
     33 O3         26.9720   -5.7520    9.2380 O.3       1 KYV        -0.2350
     34 C27        27.4490   -4.6690    9.9530 C.ar      1 KYV         0.1588
     35 C          25.7850   -4.7140   11.8860 C.2       1 KYV         0.1990
     36 O          25.3300   -4.0950   12.8570 O.2       1 KYV        -0.3903
     37 N          25.1910   -5.7950   11.3870 N.am      1 KYV        -0.3017
     38 H1         19.5040  -14.6552    8.6560 H         1 KYV         0.2311
     39 H2         29.4670   -1.9139   11.7234 H         1 KYV         0.0555
     40 H3         28.4578   -7.0568    6.5757 H         1 KYV         0.0561
     41 H4         27.5003   -2.8979   12.8298 H         1 KYV         0.0676
     42 H5         25.1480   -7.2374    8.5340 H         1 KYV         0.0606
     43 H6         30.1230   -2.6397    9.4507 H         1 KYV         0.0678
     44 H7         23.3770   -8.8143    7.9033 H         1 KYV         0.0658
     45 H8         24.3998  -11.0090    8.2298 H         1 KYV         0.0542
     46 H9         24.4093  -12.7757    7.9049 H         1 KYV         0.0542
     47 H10        23.2320  -12.3060   10.0038 H         1 KYV         0.0549
     48 H11        22.1339  -11.1649    9.1560 H         1 KYV         0.0549
     49 H12        21.7863  -15.2586   13.5555 H         1 KYV         0.0516
     50 H13        19.9064  -16.6855   14.3173 H         1 KYV         0.0508
     51 H14        18.0328  -17.1971   12.8031 H         1 KYV         0.0513
     52 H15        17.9998  -16.3049   10.4917 H         1 KYV         0.0533
     53 H16        20.5501  -12.0122    7.5336 H         1 KYV         0.0549
     54 H17        20.5174  -13.7694    7.1619 H         1 KYV         0.0549
     55 H18        22.7302  -13.6375    6.1318 H         1 KYV         0.0542
     56 H19        21.6504  -12.4104    5.3867 H         1 KYV         0.0542
     57 H20        25.7444  -10.1608    4.6072 H         1 KYV         0.0658
     58 H21        27.5188   -8.5911    5.2383 H         1 KYV         0.0606
     59 H22        24.3569   -6.1479   11.8110 H         1 KYV         0.1804
     60 H23        25.5786   -6.2546   10.5879 H         1 KYV         0.1804
@<TRIPOS>BOND
     1    1   19 am 
     2   20    1 1  
     3    1   30 1  
     4   22    2 1  
     5    2   28 1  
     6    3   10 ar 
     7   12    3 ar 
     8   22    4 2  
     9    4   23 1  
    10   21    5 1  
    11    5   22 1  
    12    5   29 1  
    13    7    6 1  
    14    6   15 2  
    15   11    7 ar 
    16    7   32 ar 
    17   14    8 2  
    18    9   10 ar 
    19   34    9 ar 
    20    9   35 1  
    21   17   11 ar 
    22   13   12 ar 
    23   14   13 1  
    24   13   34 ar 
    25   15   14 1  
    26   15   33 1  
    27   16   17 ar 
    28   19   16 1  
    29   16   31 ar 
    30   19   18 2  
    31   20   21 1  
    32   23   24 ar 
    33   23   28 ar 
    34   24   25 ar 
    35   25   26 ar 
    36   26   27 ar 
    37   27   28 ar 
    38   29   30 1  
    39   31   32 ar 
    40   33   34 1  
    41   35   36 2  
    42   35   37 am 
    43    2   38 1  
    44    3   39 1  
    45    6   40 1  
    46   10   41 1  
    47   11   42 1  
    48   12   43 1  
    49   17   44 1  
    50   20   45 1  
    51   20   46 1  
    52   21   47 1  
    53   21   48 1  
    54   24   49 1  
    55   25   50 1  
    56   26   51 1  
    57   27   52 1  
    58   29   53 1  
    59   29   54 1  
    60   30   55 1  
    61   30   56 1  
    62   31   57 1  
    63   32   58 1  
    64   37   59 1  
    65   37   60 1  
@<TRIPOS>SUBSTRUCTURE
     1 KYV         1

