### 
### Created by X-TOOL on Mon Aug  2 16:15:22 2021
### 

@<TRIPOS>MOLECULE
6nrg_ligand
   36    39     1     0     0
SMALL
GAST_HUCK


@<TRIPOS>ATOM
      1 C10        24.8740   -7.4680    7.6210 C.ar      1 KYY        -0.0579
      2 C11        23.8420   -8.3310    7.3020 C.ar      1 KYY        -0.0480
      3 C12        23.9600   -9.2300    6.2410 C.ar      1 KYY         0.0709
      4 C14        25.1520   -9.2040    5.5260 C.ar      1 KYY         0.1489
      5 C7         27.4170   -5.6300    7.9790 C.2       1 KYY         0.1834
      6 C8         27.2170   -6.6230    7.1150 C.2       1 KYY        -0.0093
      7 C1         26.8160   -3.8780   11.0720 C.ar      1 KYY         0.0885
      8 O2         26.6710   -5.4400    9.1290 O.3       1 KYY        -0.2349
      9 C2         27.5980   -2.8810   11.6620 C.ar      1 KYY        -0.0450
     10 C3         28.7180   -2.3760   11.0070 C.ar      1 KYY        -0.0608
     11 C4         29.0710   -2.8480    9.7490 C.ar      1 KYY        -0.0474
     12 C5         28.3150   -3.8510    9.1580 C.ar      1 KYY         0.0755
     13 F          25.3180  -10.0560    4.4880 F         1 KYY        -0.1785
     14 C13        22.8410  -10.1400    5.9680 C.2       1 KYY         0.1822
     15 N4         22.8170  -11.0650    5.0050 N.2       1 KYY        -0.2116
     16 N3         21.6520  -11.7400    5.0760 N.2       1 KYY        -0.1410
     17 N2         20.9950  -11.2240    6.0630 N.2       1 KYY        -0.0658
     18 N1         21.7030  -10.2210    6.6420 N.pl3     1 KYY        -0.1531
     19 C15        26.1900   -8.3590    5.8210 C.ar      1 KYY        -0.0205
     20 C9         26.0630   -7.4730    6.8910 C.ar      1 KYY        -0.0285
     21 C6         28.4880   -4.6340    7.9210 C.2       1 KYY         0.1958
     22 O1         29.3400   -4.4970    6.9990 O.2       1 KYY        -0.3665
     23 C16        27.2130   -4.3780    9.8290 C.ar      1 KYY         0.1589
     24 C          25.5720   -4.3070   11.7960 C.2       1 KYY         0.1990
     25 O          25.1590   -3.6340   12.7520 O.2       1 KYY        -0.3903
     26 N          24.9460   -5.4160   11.3810 N.am      1 KYY        -0.3017
     27 H1         24.7578   -6.7784    8.4492 H         1 KYY         0.0575
     28 H2         22.9280   -8.3091    7.8844 H         1 KYY         0.0643
     29 H3         28.0651   -6.8332    6.4650 H         1 KYY         0.0562
     30 H4         27.3297   -2.4970   12.6396 H         1 KYY         0.0676
     31 H5         29.3189   -1.6090   11.4821 H         1 KYY         0.0555
     32 H6         29.9305   -2.4360    9.2327 H         1 KYY         0.0678
     33 H7         21.4143   -9.6408    7.4426 H         1 KYY         0.2695
     34 H8         27.0986   -8.3789    5.2301 H         1 KYY         0.0588
     35 H9         24.1156   -5.7247   11.8448 H         1 KYY         0.1804
     36 H10        25.3090   -5.9353   10.6073 H         1 KYY         0.1804
@<TRIPOS>BOND
     1    1    2 ar 
     2   20    1 ar 
     3    2    3 ar 
     4    3    4 ar 
     5    3   14 1  
     6    4   13 1  
     7    4   19 ar 
     8    5    6 2  
     9    8    5 1  
    10    5   21 1  
    11    6   20 1  
    12    7    9 ar 
    13   23    7 ar 
    14    7   24 1  
    15    8   23 1  
    16    9   10 ar 
    17   10   11 ar 
    18   11   12 ar 
    19   12   21 1  
    20   12   23 ar 
    21   14   15 2  
    22   14   18 1  
    23   15   16 1  
    24   16   17 2  
    25   17   18 1  
    26   19   20 ar 
    27   21   22 2  
    28   24   25 2  
    29   24   26 am 
    30    1   27 1  
    31    2   28 1  
    32    6   29 1  
    33    9   30 1  
    34   10   31 1  
    35   11   32 1  
    36   18   33 1  
    37   19   34 1  
    38   26   35 1  
    39   26   36 1  
@<TRIPOS>SUBSTRUCTURE
     1 KYY         1

