### 
### Created by X-TOOL on Mon Aug  2 16:15:22 2021
### 

@<TRIPOS>MOLECULE
6nrh_ligand
   57    61     1     0     0
SMALL
GAST_HUCK


@<TRIPOS>ATOM
      1 O2         23.0730  -10.6290    4.7230 O.2       1 KYP        -0.3876
      2 C13        23.5160  -10.6370    5.8380 C.2       1 KYP         0.2025
      3 N1         23.1150  -11.5570    6.7450 N.am      1 KYP        -0.2694
      4 C21        22.1620  -12.6070    6.3490 C.3       1 KYP         0.0540
      5 C20        21.0080  -12.6670    7.3200 C.3       1 KYP         0.0542
      6 N2         21.5210  -12.8770    8.6760 N.pl3     1 KYP        -0.2709
      7 C16        21.1270  -13.8910    9.4860 C.ar      1 KYP         0.1958
      8 N4         20.2890  -14.8040    8.9510 N.ar      1 KYP        -0.2527
      9 C19        19.9580  -15.8210    9.7590 C.ar      1 KYP         0.0145
     10 C18        20.4240  -15.9500   11.0470 C.ar      1 KYP        -0.0228
     11 C17        21.2580  -14.9450   11.4960 C.ar      1 KYP         0.0145
     12 N3         21.6290  -13.8980   10.7420 N.ar      1 KYP        -0.2527
     13 C15        22.4350  -11.8070    9.0850 C.3       1 KYP         0.0542
     14 C14        23.5920  -11.7150    8.1280 C.3       1 KYP         0.0540
     15 C12        24.5610   -9.6240    6.2020 C.ar      1 KYP         0.0429
     16 C11        24.3800   -8.7190    7.2440 C.ar      1 KYP        -0.0485
     17 C10        25.3740   -7.8140    7.5770 C.ar      1 KYP        -0.0542
     18 C22        25.7630   -9.5930    5.5020 C.ar      1 KYP        -0.0485
     19 C23        26.7600   -8.6960    5.8470 C.ar      1 KYP        -0.0542
     20 C9         26.5940   -7.7990    6.8940 C.ar      1 KYP        -0.0332
     21 C8         27.7460   -6.9950    7.2740 C.3       1 KYP         0.0300
     22 C7         27.8500   -5.9320    8.0770 C.3       1 KYP         0.1663
     23 C6         28.8810   -4.9060    7.9980 C.2       1 KYP         0.1646
     24 O1         29.7210   -4.7400    7.0530 O.2       1 KYP        -0.3816
     25 O3         27.0820   -5.7340    9.2160 O.3       1 KYP        -0.2830
     26 C24        27.5760   -4.6280    9.8700 C.ar      1 KYP         0.1372
     27 C1         27.1560   -4.0910   11.0840 C.ar      1 KYP         0.0851
     28 C          25.9170   -4.5180   11.8220 C.2       1 KYP         0.1981
     29 O          25.4710   -3.8200   12.7750 O.2       1 KYP        -0.3910
     30 N          25.2710   -5.6200   11.3880 N.am      1 KYP        -0.3019
     31 C5         28.6840   -4.1080    9.1990 C.ar      1 KYP         0.0711
     32 C4         29.4330   -3.0750    9.7580 C.ar      1 KYP        -0.0467
     33 C3         29.0410   -2.5620   10.9780 C.ar      1 KYP        -0.0610
     34 C2         27.9160   -3.0520   11.6300 C.ar      1 KYP        -0.0455
     35 H1         22.6775  -13.5787    6.3390 H         1 KYP         0.0542
     36 H2         21.7771  -12.3857    5.3426 H         1 KYP         0.0542
     37 H3         20.3420  -13.4989    7.0471 H         1 KYP         0.0546
     38 H4         20.4477  -11.7212    7.2824 H         1 KYP         0.0546
     39 H5         19.2874  -16.5824    9.3773 H         1 KYP         0.0900
     40 H6         20.1522  -16.7920   11.6733 H         1 KYP         0.0665
     41 H7         21.6330  -15.0047   12.5113 H         1 KYP         0.0900
     42 H8         22.8154  -12.0208   10.0947 H         1 KYP         0.0546
     43 H9         21.8931  -10.8498    9.0923 H         1 KYP         0.0546
     44 H10        24.2138  -10.8482    8.3963 H         1 KYP         0.0542
     45 H11        24.1930  -12.6335    8.1995 H         1 KYP         0.0542
     46 H12        23.4502   -8.7226    7.8013 H         1 KYP         0.0652
     47 H13        25.2035   -7.1060    8.3799 H         1 KYP         0.0570
     48 H14        25.9208  -10.2787    4.6774 H         1 KYP         0.0652
     49 H15        27.6890   -8.6940    5.2884 H         1 KYP         0.0570
     50 H16        28.1459   -6.6385    6.3133 H         1 KYP         0.0490
     51 H17        28.4423   -7.7247    7.7129 H         1 KYP         0.0490
     52 H18        27.1573   -5.3707    7.4328 H         1 KYP         0.0907
     53 H19        24.4440   -5.9316   11.8559 H         1 KYP         0.1804
     54 H20        25.6192   -6.1253   10.5984 H         1 KYP         0.1804
     55 H21        30.3044   -2.6827    9.2462 H         1 KYP         0.0679
     56 H22        29.6187   -1.7660   11.4337 H         1 KYP         0.0551
     57 H23        27.6220   -2.6206   12.5800 H         1 KYP         0.0679
@<TRIPOS>BOND
     1    1    2 2  
     2    2    3 am 
     3    2   15 1  
     4    3    4 1  
     5    3   14 1  
     6    4    5 1  
     7    5    6 1  
     8    6    7 1  
     9    6   13 1  
    10    7    8 ar 
    11    7   12 ar 
    12    8    9 ar 
    13    9   10 ar 
    14   10   11 ar 
    15   11   12 ar 
    16   13   14 1  
    17   15   16 ar 
    18   15   18 ar 
    19   16   17 ar 
    20   17   20 ar 
    21   18   19 ar 
    22   19   20 ar 
    23   20   21 1  
    24   21   22 1  
    25   22   23 1  
    26   22   25 1  
    27   23   24 2  
    28   23   31 1  
    29   25   26 1  
    30   26   27 ar 
    31   26   31 ar 
    32   27   28 1  
    33   27   34 ar 
    34   28   29 2  
    35   28   30 am 
    36   31   32 ar 
    37   32   33 ar 
    38   33   34 ar 
    39    4   35 1  
    40    4   36 1  
    41    5   37 1  
    42    5   38 1  
    43    9   39 1  
    44   10   40 1  
    45   11   41 1  
    46   13   42 1  
    47   13   43 1  
    48   14   44 1  
    49   14   45 1  
    50   16   46 1  
    51   17   47 1  
    52   18   48 1  
    53   19   49 1  
    54   21   50 1  
    55   21   51 1  
    56   22   52 1  
    57   30   53 1  
    58   30   54 1  
    59   32   55 1  
    60   33   56 1  
    61   34   57 1  
@<TRIPOS>SUBSTRUCTURE
     1 KYP         1

