### 
### Created by X-TOOL on Mon Aug  2 16:12:03 2021
### 

@<TRIPOS>MOLECULE
6nri_ligand
   53    58     1     0     0
SMALL
GAST_HUCK


@<TRIPOS>ATOM
      1 O2         21.1650   -9.7110    6.7740 O.2       1 KYM        -0.3863
      2 C13        22.1740  -10.3250    7.0600 C.2       1 KYM         0.2068
      3 N1         22.2820  -11.6540    6.8520 N.am      1 KYM        -0.2525
      4 C17        23.3540  -12.4690    7.4210 C.3       1 KYM         0.1103
      5 C16        22.5690  -13.0930    8.5390 C.2       1 KYM         0.1494
      6 N3         22.9340  -13.2840    9.7830 N.2       1 KYM        -0.2871
      7 N4         21.8530  -13.8730   10.4390 N.2       1 KYM        -0.2908
      8 C18        20.8880  -14.0130    9.5560 C.2       1 KYM         0.1369
      9 C19        19.5470  -14.6330    9.8090 C.3       1 KYM         0.0763
     10 C21        19.0630  -15.7450    8.9160 C.2       1 KYM        -0.0548
     11 C20        19.4230  -16.0440   10.3190 C.2       1 KYM        -0.0548
     12 N2         21.2820  -13.5260    8.3310 N.pl3     1 KYM        -0.2107
     13 C15        20.5580  -13.4180    7.0460 C.3       1 KYM         0.0833
     14 C14        21.2820  -12.4420    6.1160 C.3       1 KYM         0.0638
     15 C12        23.3800   -9.5650    7.5110 C.ar      1 KYM         0.0463
     16 C11        24.4940   -9.5190    6.6770 C.ar      1 KYM        -0.0453
     17 C10        25.6050   -8.7740    7.0230 C.ar      1 KYM        -0.0539
     18 C22        23.4150   -8.8510    8.7060 C.ar      1 KYM        -0.0453
     19 C23        24.5210   -8.0880    9.0410 C.ar      1 KYM        -0.0539
     20 C9         25.6360   -8.0210    8.1980 C.ar      1 KYM        -0.0266
     21 C8         26.8360   -7.2160    8.3870 C.2       1 KYM        -0.0085
     22 C7         27.1690   -6.3200    9.3190 C.2       1 KYM         0.1833
     23 C6         28.2860   -5.3780    9.2480 C.2       1 KYM         0.1958
     24 O1         29.1250   -5.3020    8.3510 O.2       1 KYM        -0.3664
     25 O3         26.4370   -6.0700   10.4640 O.3       1 KYM        -0.2350
     26 C24        27.0190   -5.0170   11.1440 C.ar      1 KYM         0.1588
     27 C1         26.6630   -4.4740   12.3830 C.ar      1 KYM         0.0884
     28 C          25.5040   -4.9280   13.2070 C.2       1 KYM         0.1990
     29 O          25.1670   -4.2690   14.2050 O.2       1 KYM        -0.3903
     30 N          24.8700   -6.0420   12.8310 N.am      1 KYM        -0.3017
     31 C5         28.1360   -4.5490   10.4630 C.ar      1 KYM         0.0755
     32 C4         28.9230   -3.5460   11.0200 C.ar      1 KYM        -0.0474
     33 C3         28.5780   -3.0110   12.2500 C.ar      1 KYM        -0.0608
     34 C2         27.4570   -3.4600   12.9210 C.ar      1 KYM        -0.0450
     35 H1         24.1912  -11.8582    7.7898 H         1 KYM         0.0763
     36 H2         23.7318  -13.2172    6.7087 H         1 KYM         0.0763
     37 H3         18.8489  -13.8601   10.1629 H         1 KYM         0.0661
     38 H4         18.7069  -16.0831    7.9440 H         1 KYM         0.0632
     39 H5         19.5246  -16.7626   11.1309 H         1 KYM         0.0632
     40 H6         19.5372  -13.0533    7.2329 H         1 KYM         0.0636
     41 H7         20.5121  -14.4084    6.5697 H         1 KYM         0.0636
     42 H8         21.7865  -13.0105    5.3208 H         1 KYM         0.0551
     43 H9         20.5453  -11.7592    5.6677 H         1 KYM         0.0551
     44 H10        24.4896  -10.0739    5.7458 H         1 KYM         0.0658
     45 H11        26.4696   -8.7743    6.3691 H         1 KYM         0.0606
     46 H12        22.5678   -8.8929    9.3809 H         1 KYM         0.0658
     47 H13        24.5231   -7.5331    9.9722 H         1 KYM         0.0606
     48 H14        27.6016   -7.3744    7.6289 H         1 KYM         0.0561
     49 H15        24.0893   -6.3756   13.3595 H         1 KYM         0.1804
     50 H16        25.1760   -6.5424   12.0211 H         1 KYM         0.1804
     51 H17        29.8002   -3.1857   10.4949 H         1 KYM         0.0678
     52 H18        29.1925   -2.2337   12.6897 H         1 KYM         0.0555
     53 H19        27.1912   -3.0201   13.8754 H         1 KYM         0.0676
@<TRIPOS>BOND
     1    1    2 2  
     2    2    3 am 
     3    2   15 1  
     4    3    4 1  
     5    3   14 1  
     6    4    5 1  
     7    5    6 2  
     8    5   12 1  
     9    6    7 1  
    10    7    8 2  
    11    8    9 1  
    12    8   12 1  
    13    9   10 1  
    14    9   11 1  
    15   10   11 2  
    16   12   13 1  
    17   13   14 1  
    18   15   16 ar 
    19   15   18 ar 
    20   16   17 ar 
    21   17   20 ar 
    22   18   19 ar 
    23   19   20 ar 
    24   20   21 1  
    25   21   22 2  
    26   22   23 1  
    27   22   25 1  
    28   23   24 2  
    29   23   31 1  
    30   25   26 1  
    31   26   27 ar 
    32   26   31 ar 
    33   27   28 1  
    34   27   34 ar 
    35   28   29 2  
    36   28   30 am 
    37   31   32 ar 
    38   32   33 ar 
    39   33   34 ar 
    40    4   35 1  
    41    4   36 1  
    42    9   37 1  
    43   10   38 1  
    44   11   39 1  
    45   13   40 1  
    46   13   41 1  
    47   14   42 1  
    48   14   43 1  
    49   16   44 1  
    50   17   45 1  
    51   18   46 1  
    52   19   47 1  
    53   21   48 1  
    54   30   49 1  
    55   30   50 1  
    56   32   51 1  
    57   33   52 1  
    58   34   53 1  
@<TRIPOS>SUBSTRUCTURE
     1 KYM         1

