### 
### Created by X-TOOL on Mon Aug  2 16:15:22 2021
### 

@<TRIPOS>MOLECULE
6nrj_ligand
   54    58     1     0     0
SMALL
GAST_HUCK


@<TRIPOS>ATOM
      1 N          25.8570   -5.7350   11.1700 N.am      1 KYJ        -0.3017
      2 C          26.4670   -4.6490   11.6430 C.2       1 KYJ         0.1990
      3 O          26.0220   -4.0270   12.6470 O.2       1 KYJ        -0.3903
      4 C1         27.7150   -4.1770   10.9470 C.ar      1 KYJ         0.0884
      5 C10        26.1370   -8.0330    7.4450 C.ar      1 KYJ        -0.0539
      6 C11        25.3020   -9.0960    7.1500 C.ar      1 KYJ        -0.0453
      7 C12        25.5420   -9.9040    6.0410 C.ar      1 KYJ         0.0459
      8 C13        24.6950  -11.1170    5.8060 C.2       1 KYJ         0.2021
      9 C2         28.4820   -3.1950   11.5820 C.ar      1 KYJ        -0.0450
     10 C3         29.6230   -2.6740   10.9890 C.ar      1 KYJ        -0.0608
     11 C4         30.0240   -3.1000    9.7350 C.ar      1 KYJ        -0.0474
     12 C5         29.2780   -4.0790    9.0860 C.ar      1 KYJ         0.0755
     13 C6         29.4870   -4.7990    7.8220 C.2       1 KYJ         0.1958
     14 C7         28.4300   -5.8080    7.8050 C.2       1 KYJ         0.1833
     15 C8         28.2680   -6.7410    6.8670 C.2       1 KYJ        -0.0085
     16 C9         27.2460   -7.7510    6.6520 C.ar      1 KYJ        -0.0266
     17 N1         25.1720  -12.0400    4.9650 N.am      1 KYJ        -0.2840
     18 O1         30.3090   -4.5720    6.9100 O.2       1 KYJ        -0.3664
     19 O2         23.6270  -11.2560    6.3940 O.2       1 KYJ        -0.3867
     20 C14        24.4250  -13.2440    4.6140 C.3       1 KYJ         0.0479
     21 C15        25.2750  -14.4930    4.7470 C.3       1 KYJ         0.0499
     22 C16        25.4820  -14.8870    6.1680 C.2       1 KYJ         0.1225
     23 N3         25.0160  -16.0550    6.6720 N.2       1 KYJ        -0.3180
     24 C22        25.3880  -16.1020    8.0020 C.ar      1 KYJ         0.0207
     25 C21        25.2140  -17.0560    8.9960 C.ar      1 KYJ        -0.0656
     26 C20        25.7730  -16.8120   10.2440 C.ar      1 KYJ        -0.0786
     27 C19        26.4670  -15.6330   10.4940 C.ar      1 KYJ        -0.0766
     28 C18        26.6350  -14.6810    9.4950 C.ar      1 KYJ        -0.0422
     29 C17        26.0910  -14.9220    8.2350 C.ar      1 KYJ         0.0783
     30 N2         26.1360  -14.1680    7.0610 N.pl3     1 KYJ        -0.2464
     31 C23        26.6240   -9.5990    5.2190 C.ar      1 KYJ        -0.0453
     32 C24        27.4670   -8.5500    5.5270 C.ar      1 KYJ        -0.0539
     33 O3         27.6430   -5.6750    8.9400 O.3       1 KYJ        -0.2350
     34 C25        28.1540   -4.6340    9.6980 C.ar      1 KYJ         0.1588
     35 H1         26.2293   -6.2104   10.3729 H         1 KYJ         0.1804
     36 H2         25.0268   -6.0747   11.6121 H         1 KYJ         0.1804
     37 H3         25.9245   -7.4104    8.3065 H         1 KYJ         0.0606
     38 H4         24.4512   -9.3024    7.7892 H         1 KYJ         0.0658
     39 H5         28.1787   -2.8334   12.5579 H         1 KYJ         0.0676
     40 H6         30.2062   -1.9257   11.5133 H         1 KYJ         0.0555
     41 H7         30.9052   -2.6778    9.2657 H         1 KYJ         0.0678
     42 H8         29.0555   -6.7475    6.1149 H         1 KYJ         0.0561
     43 H9         26.0758  -11.9003    4.5605 H         1 KYJ         0.1845
     44 H10        24.0793  -13.1578    3.5733 H         1 KYJ         0.0551
     45 H11        23.5562  -13.3317    5.2830 H         1 KYJ         0.0551
     46 H12        26.2557  -14.3043    4.2858 H         1 KYJ         0.0553
     47 H13        24.7749  -15.3190    4.2202 H         1 KYJ         0.0553
     48 H14        24.6573  -17.9660    8.8033 H         1 KYJ         0.0535
     49 H15        25.6671  -17.5489   11.0320 H         1 KYJ         0.0516
     50 H16        26.8818  -15.4543   11.4794 H         1 KYJ         0.0528
     51 H17        27.1806  -13.7655    9.6931 H         1 KYJ         0.0541
     52 H18        26.5824  -13.2503    6.9219 H         1 KYJ         0.2322
     53 H19        26.8060  -10.1907    4.3291 H         1 KYJ         0.0658
     54 H20        28.3153   -8.3425    4.8849 H         1 KYJ         0.0606
@<TRIPOS>BOND
     1    2    1 am 
     2    2    3 2  
     3    4    2 1  
     4    4    9 ar 
     5   34    4 ar 
     6    5    6 ar 
     7   16    5 ar 
     8    6    7 ar 
     9    7    8 1  
    10    7   31 ar 
    11    8   17 am 
    12    8   19 2  
    13   10    9 ar 
    14   11   10 ar 
    15   12   11 ar 
    16   13   12 1  
    17   12   34 ar 
    18   14   13 1  
    19   13   18 2  
    20   15   14 2  
    21   14   33 1  
    22   15   16 1  
    23   16   32 ar 
    24   17   20 1  
    25   20   21 1  
    26   21   22 1  
    27   22   23 2  
    28   22   30 1  
    29   23   24 1  
    30   24   25 ar 
    31   24   29 ar 
    32   25   26 ar 
    33   26   27 ar 
    34   27   28 ar 
    35   28   29 ar 
    36   29   30 1  
    37   31   32 ar 
    38   33   34 1  
    39    1   35 1  
    40    1   36 1  
    41    5   37 1  
    42    6   38 1  
    43    9   39 1  
    44   10   40 1  
    45   11   41 1  
    46   15   42 1  
    47   17   43 1  
    48   20   44 1  
    49   20   45 1  
    50   21   46 1  
    51   21   47 1  
    52   25   48 1  
    53   26   49 1  
    54   27   50 1  
    55   28   51 1  
    56   30   52 1  
    57   31   53 1  
    58   32   54 1  
@<TRIPOS>SUBSTRUCTURE
     1 KYJ         1

