### 
### Created by X-TOOL on Mon Aug  2 16:15:22 2021
### 

@<TRIPOS>MOLECULE
6nsp_ligand
   51    55     1     0     0
SMALL
GAST_HUCK


@<TRIPOS>ATOM
      1 C1          6.0660   14.6910   26.3300 C.3       1 L0P        -0.0303
      2 C2          7.0510   13.5620   26.1810 C.2       1 L0P        -0.0061
      3 C3          6.7280   12.2720   26.5840 C.2       1 L0P        -0.0676
      4 C4          7.6220   11.1980   26.4240 C.2       1 L0P        -0.0431
      5 C5          8.8150   11.3980   25.8330 C.2       1 L0P         0.0699
      6 C7          8.2720   13.7410   25.5400 C.2       1 L0P         0.1333
      7 C11        11.6430   14.9310   22.7070 C.ar      1 L0P        -0.0669
      8 C12        12.3860   15.8010   21.9340 C.ar      1 L0P        -0.0707
      9 C15        10.7850   16.7700   23.9730 C.ar      1 L0P        -0.0669
     10 C16        10.2580   13.1500   24.7350 C.2       1 L0P         0.2086
     11 C18        12.4730   12.0810   24.8310 C.2       1 L0P         0.2345
     12 C23        14.5560   12.6160   22.5110 C.ar      1 L0P        -0.0463
     13 C24        15.2090   13.2350   21.4460 C.ar      1 L0P        -0.0824
     14 C27        16.5360   11.3030   22.9510 C.ar      1 L0P         0.0394
     15 C30        15.2080   10.4940   25.4540 C.2       1 L0P         0.2184
     16 N6          9.1320   12.6610   25.3810 N.pl3     1 L0P        -0.1797
     17 N8          8.8100   14.8410   25.0120 N.2       1 L0P        -0.3538
     18 C9         10.0220   14.4730   24.4970 C.2       1 L0P         0.0355
     19 C10        10.8560   15.4060   23.7450 C.ar      1 L0P        -0.0399
     20 C13        12.3510   17.1510   22.2110 C.ar      1 L0P        -0.0702
     21 C14        11.5600   17.6400   23.2320 C.ar      1 L0P        -0.0707
     22 N17        11.3130   12.3840   24.2780 N.am      1 L0P        -0.2054
     23 O19        13.0170   12.7640   25.6770 O.2       1 L0P        -0.3817
     24 C20        13.1280   10.8390   24.2580 C.3       1 L0P         0.1488
     25 N21        14.5770   10.9820   24.3330 N.am      1 L0P        -0.2017
     26 C22        15.2270   11.6680   23.2790 C.ar      1 L0P         0.0847
     27 C25        16.5230   12.9100   21.1400 C.ar      1 L0P        -0.0832
     28 C26        17.1750   11.9320   21.8780 C.ar      1 L0P        -0.0628
     29 S28        17.3220   10.0380   23.8860 S.3       1 L0P        -0.0879
     30 C29        16.7040   10.5500   25.4790 C.3       1 L0P         0.0999
     31 O31        14.5850   10.0790   26.4140 O.2       1 L0P        -0.3843
     32 H1          5.1742   14.3314   26.8643 H         1 L0P         0.0383
     33 H2          5.7743   15.0569   25.3345 H         1 L0P         0.0383
     34 H3          6.5298   15.5094   26.9001 H         1 L0P         0.0383
     35 H4          5.7549   12.0873   27.0366 H         1 L0P         0.0491
     36 H5          7.3493   10.2049   26.7781 H         1 L0P         0.0497
     37 H6          9.5183   10.5751   25.7140 H         1 L0P         0.1076
     38 H7         11.6753   13.8673   22.5005 H         1 L0P         0.0545
     39 H8         12.9913   15.4259   21.1167 H         1 L0P         0.0594
     40 H9         10.1187   17.1561   24.7359 H         1 L0P         0.0545
     41 H10        13.5281   12.8722   22.7407 H         1 L0P         0.0480
     42 H11        14.6862   13.9760   20.8522 H         1 L0P         0.0520
     43 H12        12.9503   17.8355   21.6216 H         1 L0P         0.0546
     44 H13        11.5476   18.7017   23.4506 H         1 L0P         0.0594
     45 H14        11.1737   11.9901   23.3694 H         1 L0P         0.2305
     46 H15        12.8247   10.7144   23.2080 H         1 L0P         0.0833
     47 H16        12.8150    9.9577   24.8371 H         1 L0P         0.0833
     48 H17        17.0364   13.4163   20.3305 H         1 L0P         0.0470
     49 H18        18.1902   11.6529   21.6199 H         1 L0P         0.0521
     50 H19        17.0867    9.8752   26.2588 H         1 L0P         0.0643
     51 H20        17.0325   11.5783   25.6904 H         1 L0P         0.0643
@<TRIPOS>BOND
     1    2    1 1  
     2    2    3 2  
     3    6    2 1  
     4    4    3 1  
     5    5    4 2  
     6   16    5 1  
     7   16    6 1  
     8   17    6 2  
     9    7    8 ar 
    10   19    7 ar 
    11    8   20 ar 
    12   19    9 ar 
    13    9   21 ar 
    14   10   16 1  
    15   10   18 2  
    16   22   10 1  
    17   11   22 am 
    18   11   23 2  
    19   24   11 1  
    20   12   13 ar 
    21   26   12 ar 
    22   13   27 ar 
    23   26   14 ar 
    24   14   28 ar 
    25   14   29 1  
    26   25   15 am 
    27   15   30 1  
    28   15   31 2  
    29   18   17 1  
    30   18   19 1  
    31   21   20 ar 
    32   25   24 1  
    33   25   26 1  
    34   27   28 ar 
    35   29   30 1  
    36    1   32 1  
    37    1   33 1  
    38    1   34 1  
    39    3   35 1  
    40    4   36 1  
    41    5   37 1  
    42    7   38 1  
    43    8   39 1  
    44    9   40 1  
    45   12   41 1  
    46   13   42 1  
    47   20   43 1  
    48   21   44 1  
    49   22   45 1  
    50   24   46 1  
    51   24   47 1  
    52   27   48 1  
    53   28   49 1  
    54   30   50 1  
    55   30   51 1  
@<TRIPOS>SUBSTRUCTURE
     1 L0P         1

