### 
### Created by X-TOOL on Mon Aug  2 16:15:22 2021
### 

@<TRIPOS>MOLECULE
6nsq_ligand
   53    57     1     0     0
SMALL
GAST_HUCK


@<TRIPOS>ATOM
      1 C10        -6.8240   -9.8460   25.7060 C.ar      1 KZP        -0.0504
      2 C13        -7.7170  -12.0460   26.9990 C.ar      1 KZP         0.1417
      3 N14        -8.1890  -13.1870   27.6760 N.pl3     1 KZP        -0.2544
      4 C16        -9.5870  -13.9270   25.7550 C.ar      1 KZP        -0.0372
      5 C30        -2.2880   -5.7190   20.3760 C.ar      1 KZP         0.0565
      6 C32        -2.7340   -7.6460   21.6290 C.ar      1 KZP         0.1280
      7 C15        -9.3040  -13.8840   27.1390 C.ar      1 KZP         0.0653
      8 C01        -4.1350   -2.3870   22.8530 C.3       1 KZP        -0.0364
      9 C02        -3.6430   -3.2970   23.9940 C.3       1 KZP         0.0675
     10 C05        -3.6370   -6.9990   24.0710 C.2       1 KZP         0.1125
     11 C06        -3.9080   -8.1640   24.8430 C.1       1 KZP        -0.0570
     12 C07        -4.1450   -9.1720   25.4620 C.1       1 KZP        -0.0692
     13 C08        -4.4920  -10.3590   26.1690 C.ar      1 KZP         0.0349
     14 C09        -5.8600  -10.6890   26.2840 C.ar      1 KZP        -0.0044
     15 C11        -8.1500  -10.1400   25.8030 C.ar      1 KZP        -0.0148
     16 C17       -10.6770  -14.6050   25.2560 C.ar      1 KZP        -0.0573
     17 C18       -11.4960  -15.2620   26.1480 C.ar      1 KZP         0.0282
     18 C20       -11.2450  -15.2440   27.5130 C.ar      1 KZP        -0.0573
     19 C21       -10.1490  -14.5570   28.0220 C.ar      1 KZP        -0.0372
     20 C22        -6.3120  -11.8120   26.9480 C.ar      1 KZP         0.0341
     21 C23        -5.3960  -12.7190   27.5620 C.ar      1 KZP        -0.0488
     22 C24        -4.0620  -12.4280   27.4700 C.ar      1 KZP        -0.0526
     23 C25        -3.6280  -11.2550   26.7720 C.ar      1 KZP        -0.0261
     24 C26        -2.1860  -10.9680   26.6840 C.3       1 KZP        -0.0273
     25 C27        -3.1420   -6.8260   22.7180 C.ar      1 KZP         0.0945
     26 C28        -3.0690   -5.4040   22.4920 C.ar      1 KZP         0.1638
     27 N03        -3.5120   -4.7800   23.6730 N.pl3     1 KZP        -0.1834
     28 N04        -3.8450   -5.7490   24.6020 N.2       1 KZP        -0.1864
     29 N12        -8.6440  -11.2310   26.4510 N.ar      1 KZP        -0.2898
     30 N29        -2.6400   -4.8220   21.3180 N.ar      1 KZP        -0.2675
     31 N31        -2.3090   -7.0950   20.4670 N.ar      1 KZP        -0.2656
     32 N33        -2.7580   -9.0510   21.7220 N.pl3     1 KZP        -0.3125
     33 CL1       -12.8470  -16.1070   25.5080 Cl        1 KZP        -0.0812
     34 H1         -6.5092   -8.9532   25.1779 H         1 KZP         0.0552
     35 H2         -7.7351  -13.5094   28.5426 H         1 KZP         0.2178
     36 H3         -8.9272  -13.4116   25.0665 H         1 KZP         0.0539
     37 H4         -1.9469   -5.3093   19.4321 H         1 KZP         0.1030
     38 H5         -4.1864   -1.3476   23.2093 H         1 KZP         0.0257
     39 H6         -5.1342   -2.7133   22.5287 H         1 KZP         0.0257
     40 H7         -3.4358   -2.4501   22.0062 H         1 KZP         0.0257
     41 H8         -4.3513   -3.1975   24.8297 H         1 KZP         0.0622
     42 H9         -2.6529   -2.9343   24.3072 H         1 KZP         0.0622
     43 H10        -8.8562   -9.4635   25.3353 H         1 KZP         0.0719
     44 H11       -10.8845  -14.6212   24.1922 H         1 KZP         0.0594
     45 H12       -11.9097  -15.7705   28.1883 H         1 KZP         0.0594
     46 H13        -9.9539  -14.5443   29.0882 H         1 KZP         0.0539
     47 H14        -5.7441  -13.6045   28.0813 H         1 KZP         0.0656
     48 H15        -3.3321  -13.0868   27.9264 H         1 KZP         0.0578
     49 H16        -2.0313  -10.0373   26.1184 H         1 KZP         0.0407
     50 H17        -1.6776  -11.7976   26.1709 H         1 KZP         0.0407
     51 H18        -1.7722  -10.8546   27.6969 H         1 KZP         0.0407
     52 H19        -2.4582   -9.6253   20.9213 H         1 KZP         0.1842
     53 H20        -3.0753   -9.5043   22.5908 H         1 KZP         0.1842
@<TRIPOS>BOND
     1   14    1 ar 
     2    1   15 ar 
     3    2    3 1  
     4   20    2 ar 
     5    2   29 ar 
     6    3    7 1  
     7    7    4 ar 
     8    4   16 ar 
     9    5   30 ar 
    10   31    5 ar 
    11   25    6 ar 
    12    6   31 ar 
    13    6   32 1  
    14    7   19 ar 
    15    9    8 1  
    16   27    9 1  
    17   10   11 1  
    18   25   10 1  
    19   10   28 2  
    20   11   12 3  
    21   12   13 1  
    22   13   14 ar 
    23   13   23 ar 
    24   14   20 ar 
    25   15   29 ar 
    26   16   17 ar 
    27   18   17 ar 
    28   17   33 1  
    29   19   18 ar 
    30   20   21 ar 
    31   22   21 ar 
    32   23   22 ar 
    33   23   24 1  
    34   26   25 ar 
    35   26   27 1  
    36   26   30 ar 
    37   27   28 1  
    38    1   34 1  
    39    3   35 1  
    40    4   36 1  
    41    5   37 1  
    42    8   38 1  
    43    8   39 1  
    44    8   40 1  
    45    9   41 1  
    46    9   42 1  
    47   15   43 1  
    48   16   44 1  
    49   18   45 1  
    50   19   46 1  
    51   21   47 1  
    52   22   48 1  
    53   24   49 1  
    54   24   50 1  
    55   24   51 1  
    56   32   52 1  
    57   32   53 1  
@<TRIPOS>SUBSTRUCTURE
     1 KZP         1

