### 
### Created by X-TOOL on Mon Aug  2 16:15:23 2021
### 

@<TRIPOS>MOLECULE
6nss_ligand
   55    60     1     0     0
SMALL
GAST_HUCK


@<TRIPOS>ATOM
      1 C1        -10.0240   17.5490  -11.8320 C.3       1 L0M        -0.0070
      2 C2        -10.6110   16.1990  -12.0690 C.2       1 L0M         0.0684
      3 C4        -12.4600   14.7920  -11.8950 C.2       1 L0M         0.0131
      4 C5        -11.8380   13.7580  -12.4520 C.2       1 L0M         0.0810
      5 C7         -9.8720   15.1340  -12.6660 C.2       1 L0M         0.1671
      6 C11        -5.9710   13.8740  -13.7270 C.ar      1 L0M        -0.0662
      7 C12        -4.7690   13.5320  -14.3230 C.ar      1 L0M        -0.0703
      8 C15        -7.1590   12.5460  -15.3410 C.ar      1 L0M        -0.0662
      9 C16        -9.6130   13.0650  -13.4640 C.2       1 L0M         0.2156
     10 C18        -9.4210   10.6730  -13.1830 C.2       1 L0M         0.2336
     11 C23        -7.8510    8.7340  -15.5080 C.ar      1 L0M        -0.0472
     12 C24        -6.9880    8.3200  -16.5310 C.ar      1 L0M        -0.0838
     13 C27        -7.7200    6.5240  -14.5660 C.ar      1 L0M         0.1366
     14 O28        -8.0910    5.6030  -13.5790 O.3       1 L0M        -0.2657
     15 C30        -9.0190    5.1500  -11.4370 C.ar      1 L0M        -0.0389
     16 C31        -9.7830    5.5230  -10.3570 C.ar      1 L0M        -0.0830
     17 C32       -10.2890    6.7930  -10.2730 C.ar      1 L0M        -0.0838
     18 C33       -10.0570    7.6930  -11.2750 C.ar      1 L0M        -0.0472
     19 C34        -9.3010    7.3240  -12.3930 C.ar      1 L0M         0.0965
     20 N3        -11.8710   15.9890  -11.6890 N.2       1 L0M        -0.3124
     21 N6        -10.5330   13.9220  -12.8690 N.pl3     1 L0M        -0.1719
     22 N8         -8.6260   15.0780  -13.1120 N.2       1 L0M        -0.3345
     23 C9         -8.4560   13.8080  -13.6260 C.2       1 L0M         0.0482
     24 C10        -7.1830   13.3940  -14.2300 C.ar      1 L0M        -0.0366
     25 C13        -4.7580   12.5950  -15.3420 C.ar      1 L0M        -0.0699
     26 C14        -5.9410   12.1250  -15.8660 C.ar      1 L0M        -0.0703
     27 N17        -9.8900   11.7610  -13.8270 N.am      1 L0M        -0.2018
     28 O19        -8.6130   10.7300  -12.2580 O.2       1 L0M        -0.3811
     29 C20       -10.0170    9.3450  -13.6730 C.3       1 L0M         0.1364
     30 N21        -9.0980    8.2030  -13.4830 N.pl3     1 L0M        -0.2449
     31 C22        -8.2090    7.8350  -14.5190 C.ar      1 L0M         0.0965
     32 C25        -6.4660    7.0350  -16.5460 C.ar      1 L0M        -0.0830
     33 C26        -6.8600    6.1120  -15.5950 C.ar      1 L0M        -0.0389
     34 C29        -8.7960    6.0330  -12.4630 C.ar      1 L0M         0.1366
     35 H1        -10.7777   18.1995  -11.3642 H         1 L0M         0.0445
     36 H2         -9.7079   17.9850  -12.7912 H         1 L0M         0.0445
     37 H3         -9.1535   17.4585  -11.1657 H         1 L0M         0.0445
     38 H4        -13.4977   14.6672  -11.5892 H         1 L0M         0.0649
     39 H5        -12.3467   12.8032  -12.5764 H         1 L0M         0.1069
     40 H6         -5.9718   14.5228  -12.8586 H         1 L0M         0.0547
     41 H7         -3.8449   13.9938  -13.9947 H         1 L0M         0.0595
     42 H8         -8.0877   12.2169  -15.7929 H         1 L0M         0.0547
     43 H9         -8.2342    9.7479  -15.4914 H         1 L0M         0.0485
     44 H10        -6.7246    9.0133  -17.3216 H         1 L0M         0.0494
     45 H11        -8.5912    4.1548  -11.4782 H         1 L0M         0.0504
     46 H12        -9.9861    4.8083   -9.5676 H         1 L0M         0.0483
     47 H13       -10.8752    7.0851   -9.4092 H         1 L0M         0.0494
     48 H14       -10.4603    8.6966  -11.2033 H         1 L0M         0.0485
     49 H15        -3.8136   12.2298  -15.7290 H         1 L0M         0.0549
     50 H16        -5.9237   11.4232  -16.6920 H         1 L0M         0.0595
     51 H17       -10.4787   11.6139  -14.6219 H         1 L0M         0.2326
     52 H18       -10.2474    9.4368  -14.7447 H         1 L0M         0.0804
     53 H19       -10.9437    9.1477  -13.1142 H         1 L0M         0.0804
     54 H20        -5.7464    6.7534  -17.3062 H         1 L0M         0.0483
     55 H21        -6.5103    5.0871  -15.6437 H         1 L0M         0.0504
@<TRIPOS>BOND
     1    2    1 1  
     2    5    2 1  
     3    2   20 2  
     4    4    3 2  
     5    3   20 1  
     6   21    4 1  
     7   21    5 1  
     8   22    5 2  
     9    6    7 ar 
    10   24    6 ar 
    11    7   25 ar 
    12   24    8 ar 
    13    8   26 ar 
    14    9   21 1  
    15    9   23 2  
    16   27    9 1  
    17   10   27 am 
    18   10   28 2  
    19   29   10 1  
    20   11   12 ar 
    21   31   11 ar 
    22   12   32 ar 
    23   14   13 1  
    24   13   31 ar 
    25   13   33 ar 
    26   34   14 1  
    27   15   16 ar 
    28   34   15 ar 
    29   17   16 ar 
    30   18   17 ar 
    31   19   18 ar 
    32   30   19 1  
    33   19   34 ar 
    34   23   22 1  
    35   23   24 1  
    36   26   25 ar 
    37   29   30 1  
    38   30   31 1  
    39   32   33 ar 
    40    1   35 1  
    41    1   36 1  
    42    1   37 1  
    43    3   38 1  
    44    4   39 1  
    45    6   40 1  
    46    7   41 1  
    47    8   42 1  
    48   11   43 1  
    49   12   44 1  
    50   15   45 1  
    51   16   46 1  
    52   17   47 1  
    53   18   48 1  
    54   25   49 1  
    55   26   50 1  
    56   27   51 1  
    57   29   52 1  
    58   29   53 1  
    59   32   54 1  
    60   33   55 1  
@<TRIPOS>SUBSTRUCTURE
     1 L0M         1

