### 
### Created by X-TOOL on Mon Aug  2 16:15:23 2021
### 

@<TRIPOS>MOLECULE
6nsv_ligand
  100   104     1     0     0
SMALL
GAST_HUCK


@<TRIPOS>ATOM
      1 C          -3.5250    5.8150    2.8100 C.2       1 ACE         0.1751
      2 O          -4.0680    6.1140    3.8300 O.2       1 ACE        -0.3972
      3 CH3        -3.2930    4.3730    2.4940 C.3       1 ACE         0.0258
      4 N          -2.9420    6.7110    2.0600 N.am      1 ACE        -0.2658
      5 CA         -2.9310    8.1040    2.4080 C.3       1 ACE         0.1311
      6 C          -4.3350    8.6540    2.4080 C.2       1 ACE         0.2040
      7 O          -4.6320    9.4760    3.2100 O.2       1 ACE        -0.3944
      8 CB         -2.1140    8.9610    1.4260 C.3       1 ACE        -0.0101
      9 CG         -0.7620    9.5820    1.7110 C.3       1 ACE        -0.0425
     10 CD1        -0.4220   10.6050    0.6260 C.3       1 ACE        -0.0625
     11 CD2        -0.6400   10.2620    3.0480 C.3       1 ACE        -0.0625
     12 N          -5.1360    8.3500    1.5420 N.am      1 ACE        -0.2627
     13 CA         -6.4490    8.9490    1.3340 C.3       1 ACE         0.1352
     14 C          -7.5490    8.2250    2.1020 C.2       1 ACE         0.2052
     15 O          -8.7340    8.3430    1.7790 O.2       1 ACE        -0.3942
     16 CB         -6.7360    9.0180   -0.1690 C.3       1 ACE         0.0042
     17 CG         -5.9240   10.0770   -0.8920 C.2       1 ACE        -0.0418
     18 CD1        -4.8280    9.8900   -1.6950 C.2       1 ACE         0.0167
     19 CD2        -6.1600   11.4890   -0.8700 C.ar      1 ACE        -0.0214
     20 NE1        -4.3800   11.0990   -2.1760 N.pl3     1 ACE        -0.2890
     21 CE2        -5.1800   12.0940   -1.6830 C.ar      1 ACE         0.0603
     22 CE3        -7.1070   12.2990   -0.2480 C.ar      1 ACE        -0.0747
     23 CZ2        -5.1270   13.4680   -1.8910 C.ar      1 ACE        -0.0443
     24 CZ3        -7.0530   13.6660   -0.4610 C.ar      1 ACE        -0.0792
     25 CH2        -6.0780   14.2330   -1.2700 C.ar      1 ACE        -0.0768
     26 N          -7.1800    7.5160    3.1490 N.am      1 ACE        -0.2626
     27 CA         -8.1360    6.7770    3.9400 C.3       1 ACE         0.1354
     28 C          -7.8780    7.0800    5.4040 C.2       1 ACE         0.2077
     29 O          -6.7600    7.4490    5.7770 O.2       1 ACE        -0.3940
     30 CB         -7.9650    5.2780    3.6940 C.3       1 ACE         0.0042
     31 CG         -8.3520    4.8670    2.3310 C.2       1 ACE        -0.0418
     32 CD1        -7.5180    4.6480    1.2810 C.2       1 ACE         0.0167
     33 CD2        -9.6800    4.6390    1.8510 C.ar      1 ACE        -0.0214
     34 NE1        -8.2420    4.2910    0.1690 N.pl3     1 ACE        -0.2890
     35 CE2        -9.5730    4.2760    0.4920 C.ar      1 ACE         0.0603
     36 CE3       -10.9470    4.7010    2.4350 C.ar      1 ACE        -0.0747
     37 CZ2       -10.6850    3.9780   -0.2890 C.ar      1 ACE        -0.0443
     38 CZ3       -12.0510    4.4070    1.6560 C.ar      1 ACE        -0.0792
     39 CH2       -11.9130    4.0480    0.3090 C.ar      1 ACE        -0.0768
     40 N          -8.8980    6.9700    6.2480 N.am      1 ACE        -0.2497
     41 CA         -8.6800    7.2020    7.6720 C.3       1 ACE         0.1337
     42 C          -7.7980    6.1200    8.2780 C.2       1 ACE         0.2036
     43 O          -7.6550    5.0220    7.7380 O.2       1 ACE        -0.3944
     44 CB        -10.0970    7.1640    8.2650 C.3       1 ACE        -0.0104
     45 CG        -10.8880    6.3870    7.3130 C.3       1 ACE        -0.0281
     46 CD        -10.3210    6.7020    5.9590 C.3       1 ACE         0.0369
     47 N          -7.2030    6.4520    9.4290 N.am      1 ACE        -0.2679
     48 CA         -6.4330    5.4840   10.2160 C.3       1 ACE         0.1057
     49 C          -7.2600    4.9390   11.3790 C.2       1 ACE         0.0618
     50 O          -6.8230    4.0150   12.0520 O.co2     1 ACE        -0.5665
     51 CB         -5.1860    6.1380   10.8060 C.3       1 ACE         0.0351
     52 CG         -4.2790    6.7160    9.7620 C.2       1 ACE         0.0387
     53 OD1        -4.0260    6.0310    8.7420 O.co2     1 ACE        -0.5688
     54 OD2        -3.8360    7.8650    9.9540 O.co2     1 ACE        -0.5688
     55 OXT        -8.3620    5.4010   11.7000 O.co2     1 ACE        -0.5665
     56 H1         -2.7850    4.2878    1.5220 H         1 ACE         0.0467
     57 H2         -4.2582    3.8472    2.4506 H         1 ACE         0.0467
     58 H3         -2.6649    3.9225    3.2767 H         1 ACE         0.0467
     59 H4         -2.4895    6.4181    1.2177 H         1 ACE         0.1882
     60 H5         -2.4982    8.2045    3.4142 H         1 ACE         0.0800
     61 H6         -2.7700    9.8031    1.1605 H         1 ACE         0.0315
     62 H7         -1.9601    8.3234    0.5429 H         1 ACE         0.0315
     63 H8         -0.0172    8.7731    1.6793 H         1 ACE         0.0298
     64 H9          0.5603   11.0521    0.8385 H         1 ACE         0.0232
     65 H10        -1.1886   11.3937    0.6125 H         1 ACE         0.0232
     66 H11        -0.3931   10.1049   -0.3533 H         1 ACE         0.0232
     67 H12        -0.8802    9.5453    3.8471 H         1 ACE         0.0232
     68 H13        -1.3395   11.1097    3.0934 H         1 ACE         0.0232
     69 H14         0.3888   10.6279    3.1808 H         1 ACE         0.0232
     70 H15        -4.8674    7.6199    0.9137 H         1 ACE         0.1884
     71 H16        -6.4118    9.9797    1.7164 H         1 ACE         0.0815
     72 H17        -7.8038    9.2416   -0.3098 H         1 ACE         0.0397
     73 H18        -6.5048    8.0385   -0.6130 H         1 ACE         0.0397
     74 H19        -4.3774    8.9243   -1.9195 H         1 ACE         0.0795
     75 H20        -3.5747   11.2331   -2.8040 H         1 ACE         0.2216
     76 H21        -7.8705   11.8681    0.3896 H         1 ACE         0.0540
     77 H22        -4.3645   13.9149   -2.5187 H         1 ACE         0.0541
     78 H23        -7.7873   14.3066    0.0138 H         1 ACE         0.0510
     79 H24        -6.0691   15.3074   -1.4137 H         1 ACE         0.0530
     80 H25        -6.2131    7.4887    3.4027 H         1 ACE         0.1884
     81 H26        -9.1579    7.0808    3.6693 H         1 ACE         0.0815
     82 H27        -8.5903    4.7314    4.4152 H         1 ACE         0.0397
     83 H28        -6.9085    5.0156    3.8519 H         1 ACE         0.0397
     84 H29        -6.4336    4.7418    1.3156 H         1 ACE         0.0795
     85 H30        -7.8479    4.0706   -0.7568 H         1 ACE         0.2216
     86 H31       -11.0627    4.9740    3.4777 H         1 ACE         0.0540
     87 H32       -10.5821    3.7008   -1.3319 H         1 ACE         0.0541
     88 H33       -13.0408    4.4552    2.0954 H         1 ACE         0.0510
     89 H34       -12.7992    3.8206   -0.2723 H         1 ACE         0.0530
     90 H35        -8.2144    8.1844    7.8396 H         1 ACE         0.0802
     91 H36       -10.5019    8.1820    8.3631 H         1 ACE         0.0313
     92 H37       -10.0901    6.6755    9.2506 H         1 ACE         0.0313
     93 H38       -11.9465    6.6820    7.3633 H         1 ACE         0.0287
     94 H39       -10.7965    5.3117    7.5261 H         1 ACE         0.0287
     95 H40       -10.4313    5.8470    5.2757 H         1 ACE         0.0524
     96 H41       -10.8088    7.5858    5.5222 H         1 ACE         0.0524
     97 H42        -7.2861    7.3907    9.7635 H         1 ACE         0.1876
     98 H43        -6.1347    4.6530    9.5599 H         1 ACE         0.0745
     99 H44        -4.6278    5.3795   11.3744 H         1 ACE         0.0471
    100 H45        -5.5007    6.9457   11.4832 H         1 ACE         0.0471
@<TRIPOS>BOND
     1    1    2 2  
     2    1    3 1  
     3    1    4 am 
     4    4    5 1  
     5    5    6 1  
     6    5    8 1  
     7    6    7 2  
     8    6   12 am 
     9    8    9 1  
    10    9   10 1  
    11    9   11 1  
    12   12   13 1  
    13   13   14 1  
    14   13   16 1  
    15   14   15 2  
    16   14   26 am 
    17   16   17 1  
    18   17   18 2  
    19   17   19 1  
    20   18   20 1  
    21   19   21 ar 
    22   19   22 ar 
    23   20   21 1  
    24   21   23 ar 
    25   22   24 ar 
    26   23   25 ar 
    27   24   25 ar 
    28   26   27 1  
    29   27   28 1  
    30   27   30 1  
    31   28   29 2  
    32   28   40 am 
    33   30   31 1  
    34   31   32 2  
    35   31   33 1  
    36   32   34 1  
    37   33   35 ar 
    38   33   36 ar 
    39   34   35 1  
    40   35   37 ar 
    41   36   38 ar 
    42   37   39 ar 
    43   38   39 ar 
    44   40   41 1  
    45   40   46 1  
    46   41   42 1  
    47   41   44 1  
    48   42   43 2  
    49   42   47 am 
    50   44   45 1  
    51   45   46 1  
    52   47   48 1  
    53   48   49 1  
    54   48   51 1  
    55   49   50 ar 
    56   49   55 ar 
    57   51   52 1  
    58   52   53 ar 
    59   52   54 ar 
    60    3   56 1  
    61    3   57 1  
    62    3   58 1  
    63    4   59 1  
    64    5   60 1  
    65    8   61 1  
    66    8   62 1  
    67    9   63 1  
    68   10   64 1  
    69   10   65 1  
    70   10   66 1  
    71   11   67 1  
    72   11   68 1  
    73   11   69 1  
    74   12   70 1  
    75   13   71 1  
    76   16   72 1  
    77   16   73 1  
    78   18   74 1  
    79   20   75 1  
    80   22   76 1  
    81   23   77 1  
    82   24   78 1  
    83   25   79 1  
    84   26   80 1  
    85   27   81 1  
    86   30   82 1  
    87   30   83 1  
    88   32   84 1  
    89   34   85 1  
    90   36   86 1  
    91   37   87 1  
    92   38   88 1  
    93   39   89 1  
    94   41   90 1  
    95   44   91 1  
    96   44   92 1  
    97   45   93 1  
    98   45   94 1  
    99   46   95 1  
   100   46   96 1  
   101   47   97 1  
   102   48   98 1  
   103   51   99 1  
   104   51  100 1  
@<TRIPOS>SUBSTRUCTURE
     1 ACE         1

