### 
### Created by X-TOOL on Mon Aug  2 16:15:23 2021
### 

@<TRIPOS>MOLECULE
6nti_ligand
   75    77     1     0     0
SMALL
GAST_HUCK


@<TRIPOS>ATOM
      1 C1         45.4300   -8.5410  178.0140 C.3       1 MOL         0.2061
      2 C2         46.5350   -9.0330  178.9640 C.3       1 MOL         0.0568
      3 C3         46.8250  -10.5040  178.6380 C.3       1 MOL         0.1305
      4 C4         45.5500  -11.3400  178.6960 C.3       1 MOL         0.1176
      5 C5         44.4250  -10.7370  177.8390 C.3       1 MOL         0.1296
      6 C6         43.1240  -11.5040  178.0880 C.3       1 MOL        -0.0058
      7 C7         45.4370   -5.9210  173.6300 C.3       1 MOL         0.0104
      8 C8         44.4020   -5.7380  174.7440 C.3       1 MOL         0.1325
      9 C9         44.9370   -6.4770  175.9660 C.3       1 MOL         0.1181
     10 C10        45.1950   -7.9150  175.6370 C.3       1 MOL         0.1326
     11 C11        46.0790   -8.1130  174.3700 C.3       1 MOL         0.0104
     12 C12        45.5190   -7.3780  173.1890 C.3       1 MOL         0.0381
     13 C13        42.9720   -3.7150  174.8610 C.3       1 MOL         0.1915
     14 C14        43.2900   -2.2220  174.6180 C.3       1 MOL         0.1506
     15 C15        43.6740   -1.5240  175.9390 C.3       1 MOL         0.0360
     16 C16        42.6000   -1.7520  177.0290 C.3       1 MOL         0.1283
     17 C17        42.4810   -3.2630  177.2230 C.3       1 MOL         0.1159
     18 C18        41.4550   -3.6970  178.2770 C.3       1 MOL         0.0731
     19 N1         41.9790  -10.8280  177.4440 N.4       1 MOL         0.2204
     20 N2         46.0840   -9.5880  174.2920 N.4       1 MOL         0.2228
     21 N3         44.9650   -5.0380  172.5740 N.4       1 MOL         0.2228
     22 N4         43.8990   -0.0890  175.6850 N.4       1 MOL         0.2246
     23 O5         44.2720   -9.3740  178.2020 O.3       1 MOL        -0.3351
     24 O7         47.7670  -11.0050  179.6080 O.3       1 MOL        -0.3834
     25 O8         45.8370  -12.6510  178.1690 O.3       1 MOL        -0.3862
     26 O9         45.9130   -8.6260  176.6740 O.3       1 MOL        -0.3347
     27 O10        43.9180   -6.3580  176.9700 O.3       1 MOL        -0.3862
     28 O11        44.2300   -4.3670  175.0990 O.3       1 MOL        -0.3371
     29 O12        42.0980   -3.8670  175.9760 O.3       1 MOL        -0.3403
     30 O13        44.4450   -2.1630  173.7440 O.3       1 MOL        -0.3812
     31 O14        43.0530   -1.1390  178.2440 O.3       1 MOL        -0.3834
     32 O15        40.1300   -3.2450  177.9730 O.3       1 MOL        -0.3924
     33 N6         47.7780   -8.2640  178.7670 N.4       1 MOL         0.2263
     34 H1         45.1724   -7.4967  178.2446 H         1 MOL         0.0970
     35 H2         46.1990   -8.9334  180.0067 H         1 MOL         0.0927
     36 H3         47.2579  -10.5753  177.6293 H         1 MOL         0.0679
     37 H4         45.2141  -11.4164  179.7406 H         1 MOL         0.0649
     38 H5         44.6908  -10.8072  176.7739 H         1 MOL         0.0678
     39 H6         42.9434  -11.5637  179.1714 H         1 MOL         0.0840
     40 H7         43.2205  -12.5193  177.6758 H         1 MOL         0.0840
     41 H8         46.4318   -5.6012  173.9736 H         1 MOL         0.0878
     42 H9         43.4365   -6.1598  174.4279 H         1 MOL         0.0681
     43 H10        45.8704   -6.0112  176.3149 H         1 MOL         0.0649
     44 H11        44.2186   -8.3957  175.4771 H         1 MOL         0.0681
     45 H12        47.1010   -7.7435  174.5402 H         1 MOL         0.0878
     46 H13        46.1842   -7.4813  172.3191 H         1 MOL         0.0377
     47 H14        44.5199   -7.7611  172.9341 H         1 MOL         0.0377
     48 H15        42.4924   -4.1451  173.9694 H         1 MOL         0.0939
     49 H16        42.4257   -1.7189  174.1599 H         1 MOL         0.0702
     50 H17        44.6169   -1.9612  176.2991 H         1 MOL         0.0904
     51 H18        41.6339   -1.3241  176.7234 H         1 MOL         0.0678
     52 H19        43.4675   -3.6441  177.5257 H         1 MOL         0.0648
     53 H20        41.7538   -3.2830  179.2513 H         1 MOL         0.0584
     54 H21        41.4488   -4.7956  178.3316 H         1 MOL         0.0584
     55 H22        41.1362  -11.3514  177.6223 H         1 MOL         0.1995
     56 H23        42.1367  -10.7735  176.4499 H         1 MOL         0.1995
     57 H24        41.8828   -9.8979  177.8205 H         1 MOL         0.1995
     58 H25        46.4808   -9.9678  175.1372 H         1 MOL         0.1998
     59 H26        46.6357   -9.8808  173.5008 H         1 MOL         0.1998
     60 H27        45.1390   -9.9220  174.1848 H         1 MOL         0.1998
     61 H28        44.9301   -4.0913  172.9183 H         1 MOL         0.1998
     62 H29        44.0431   -5.3241  172.2838 H         1 MOL         0.1998
     63 H30        45.5948   -5.0869  171.7885 H         1 MOL         0.1998
     64 H31        44.6027    0.0196  174.9715 H         1 MOL         0.1999
     65 H32        44.2092    0.3579  176.5336 H         1 MOL         0.1999
     66 H33        43.0390    0.3365  175.3761 H         1 MOL         0.1999
     67 H34        47.9710  -11.9116  179.4107 H         1 MOL         0.2102
     68 H35        46.1129  -12.5736  177.2633 H         1 MOL         0.2100
     69 H36        43.1131   -6.7486  176.6505 H         1 MOL         0.2100
     70 H37        45.1756   -2.6090  174.1561 H         1 MOL         0.2103
     71 H38        43.1247   -0.2003  178.1162 H         1 MOL         0.2102
     72 H39        39.8588   -3.6028  177.1358 H         1 MOL         0.2095
     73 H40        47.6089   -7.2926  178.9764 H         1 MOL         0.2000
     74 H41        48.0804   -8.3536  177.8096 H         1 MOL         0.2000
     75 H42        48.4942   -8.6201  179.3804 H         1 MOL         0.2000
@<TRIPOS>BOND
     1    1    2 1  
     2    1   23 1  
     3   26    1 1  
     4    2    3 1  
     5    2   33 1  
     6    3    4 1  
     7    3   24 1  
     8    5    4 1  
     9    4   25 1  
    10    5    6 1  
    11   23    5 1  
    12    6   19 1  
    13    8    7 1  
    14    7   12 1  
    15    7   21 1  
    16    8    9 1  
    17   28    8 1  
    18    9   10 1  
    19    9   27 1  
    20   10   11 1  
    21   10   26 1  
    22   12   11 1  
    23   11   20 1  
    24   13   14 1  
    25   13   28 1  
    26   13   29 1  
    27   14   15 1  
    28   14   30 1  
    29   15   16 1  
    30   15   22 1  
    31   16   17 1  
    32   16   31 1  
    33   17   18 1  
    34   17   29 1  
    35   18   32 1  
    36    1   34 1  
    37    2   35 1  
    38    3   36 1  
    39    4   37 1  
    40    5   38 1  
    41    6   39 1  
    42    6   40 1  
    43    7   41 1  
    44    8   42 1  
    45    9   43 1  
    46   10   44 1  
    47   11   45 1  
    48   12   46 1  
    49   12   47 1  
    50   13   48 1  
    51   14   49 1  
    52   15   50 1  
    53   16   51 1  
    54   17   52 1  
    55   18   53 1  
    56   18   54 1  
    57   19   55 1  
    58   19   56 1  
    59   19   57 1  
    60   20   58 1  
    61   20   59 1  
    62   20   60 1  
    63   21   61 1  
    64   21   62 1  
    65   21   63 1  
    66   22   64 1  
    67   22   65 1  
    68   22   66 1  
    69   24   67 1  
    70   25   68 1  
    71   27   69 1  
    72   30   70 1  
    73   31   71 1  
    74   32   72 1  
    75   33   73 1  
    76   33   74 1  
    77   33   75 1  
@<TRIPOS>SUBSTRUCTURE
     1 MOL         1

