### 
### Created by X-TOOL on Mon Aug  2 16:15:23 2021
### 

@<TRIPOS>MOLECULE
6ntj_ligand
   75    77     1     0     0
SMALL
GAST_HUCK


@<TRIPOS>ATOM
      1 C11       162.4480   -8.7620   73.5710 C.3       1 LLL         0.2034
      2 O11       161.4820   -8.6990   72.4440 O.3       1 LLL        -0.3348
      3 C21       163.7610   -9.3280   72.9760 C.3       1 LLL         0.0279
      4 N21       164.1540   -8.5080   71.8060 N.4       1 LLL         0.2243
      5 C31       163.4930  -10.7380   72.4480 C.3       1 LLL        -0.0025
      6 C41       162.9880  -11.5930   73.6350 C.3       1 LLL        -0.0162
      7 C51       161.7150  -10.9240   74.1820 C.3       1 LLL         0.1015
      8 O51       161.9610   -9.5700   74.6490 O.3       1 LLL        -0.3378
      9 C61       161.3040  -11.7490   75.3900 C.3       1 LLL        -0.0084
     10 N61       160.3810  -10.9170   76.1010 N.4       1 LLL         0.2204
     11 C12       158.4660   -6.0460   71.5670 C.3       1 LLL         0.0104
     12 N12       157.3200   -5.1820   71.4340 N.4       1 LLL         0.2228
     13 C22       158.1140   -7.5150   71.2760 C.3       1 LLL         0.0381
     14 C32       159.4610   -8.2450   71.3180 C.3       1 LLL         0.0104
     15 N32       159.2950   -9.6990   71.0140 N.4       1 LLL         0.2228
     16 C42       160.1830   -8.1210   72.7080 C.3       1 LLL         0.1326
     17 C52       160.2900   -6.6580   73.0990 C.3       1 LLL         0.1181
     18 O52       160.7330   -6.5730   74.4800 O.3       1 LLL        -0.3862
     19 C62       158.9940   -5.8890   72.9800 C.3       1 LLL         0.1325
     20 O62       159.2530   -4.4780   73.3040 O.3       1 LLL        -0.3371
     21 C13       158.3880   -3.8640   74.1910 C.3       1 LLL         0.1911
     22 C23       158.3700   -2.3570   73.8330 C.3       1 LLL         0.1509
     23 O23       157.7550   -2.2310   72.5130 O.3       1 LLL        -0.3812
     24 C33       159.7660   -1.6370   73.8800 C.3       1 LLL         0.0397
     25 N33       159.5270   -0.1750   73.6710 N.4       1 LLL         0.2310
     26 C43       160.4090   -1.9490   75.2590 C.3       1 LLL         0.1311
     27 O43       159.7630   -1.0670   76.1830 O.3       1 LLL        -0.3809
     28 C53       160.2020   -3.4380   75.6470 C.3       1 LLL         0.0846
     29 O53       158.8500   -3.9170   75.5770 O.3       1 LLL        -0.3455
     30 C83       161.8910   -1.5730   75.2260 C.3       1 LLL        -0.0285
     31 C93       160.4490    0.3400   72.6090 C.3       1 LLL        -0.0444
     32 H1        162.6280   -7.7471   73.9551 H         1 LLL         0.0969
     33 H2        164.5564   -9.3360   73.7358 H         1 LLL         0.0900
     34 H3        165.0085   -8.8708   71.4132 H         1 LLL         0.1999
     35 H4        164.2968   -7.5536   72.0973 H         1 LLL         0.1999
     36 H5        163.4241   -8.5418   71.1116 H         1 LLL         0.1999
     37 H6        164.4201  -11.1694   72.0425 H         1 LLL         0.0322
     38 H7        162.7283  -10.7039   71.6581 H         1 LLL         0.0322
     39 H8        163.7567  -11.6352   74.4207 H         1 LLL         0.0294
     40 H9        162.7580  -12.6125   73.2919 H         1 LLL         0.0294
     41 H10       160.9271  -10.9193   73.4144 H         1 LLL         0.0651
     42 H11       162.1778  -11.9821   76.0161 H         1 LLL         0.0839
     43 H12       160.8191  -12.6845   75.0742 H         1 LLL         0.0839
     44 H13       160.0593  -11.4000   76.9252 H         1 LLL         0.1995
     45 H14       159.5944  -10.7044   75.5077 H         1 LLL         0.1995
     46 H15       160.8394  -10.0608   76.3708 H         1 LLL         0.1995
     47 H16       159.2400   -5.7271   70.8534 H         1 LLL         0.0878
     48 H17       156.9442   -5.2634   70.5022 H         1 LLL         0.1998
     49 H18       157.5974   -4.2276   71.6022 H         1 LLL         0.1998
     50 H19       156.6169   -5.4507   72.1045 H         1 LLL         0.1998
     51 H20       157.6480   -7.6146   70.2846 H         1 LLL         0.0377
     52 H21       157.4324   -7.9113   72.0430 H         1 LLL         0.0377
     53 H22       160.1088   -7.7960   70.5507 H         1 LLL         0.0878
     54 H23       160.1937  -10.1541   71.0482 H         1 LLL         0.1998
     55 H24       158.8987   -9.8067   70.0935 H         1 LLL         0.1998
     56 H25       158.6807  -10.1167   71.6953 H         1 LLL         0.1998
     57 H26       159.6510   -8.6791   73.4925 H         1 LLL         0.0681
     58 H27       161.0360   -6.1822   72.4455 H         1 LLL         0.0649
     59 H28       160.8028   -5.6601   74.7334 H         1 LLL         0.2100
     60 H29       158.2559   -6.2927   73.6886 H         1 LLL         0.0681
     61 H30       157.3866   -4.3112   74.1064 H         1 LLL         0.0939
     62 H31       157.7257   -1.8496   74.5661 H         1 LLL         0.0703
     63 H32       157.7288   -1.3148   72.2633 H         1 LLL         0.2103
     64 H33       160.4191   -2.0165   73.0804 H         1 LLL         0.0907
     65 H34       159.6989    0.3192   74.5325 H         1 LLL         0.2015
     66 H35       158.5716   -0.0291   73.3848 H         1 LLL         0.2015
     67 H36       160.1150   -1.2093   77.0538 H         1 LLL         0.2105
     68 H37       160.5544   -3.5702   76.6806 H         1 LLL         0.0591
     69 H38       160.8137   -4.0521   74.9697 H         1 LLL         0.0591
     70 H39       162.3471   -1.7937   76.2024 H         1 LLL         0.0260
     71 H40       161.9922   -0.4995   75.0083 H         1 LLL         0.0260
     72 H41       162.3997   -2.1554   74.4437 H         1 LLL         0.0260
     73 H42       160.2704    1.4149   72.4582 H         1 LLL         0.0777
     74 H43       160.2617   -0.1983   71.6682 H         1 LLL         0.0777
     75 H44       161.4920    0.1818   72.9206 H         1 LLL         0.0777
@<TRIPOS>BOND
     1    2    1 1  
     2    1    3 1  
     3    1    8 1  
     4   16    2 1  
     5    3    4 1  
     6    3    5 1  
     7    5    6 1  
     8    7    6 1  
     9    8    7 1  
    10    7    9 1  
    11    9   10 1  
    12   11   12 1  
    13   13   11 1  
    14   11   19 1  
    15   14   13 1  
    16   14   15 1  
    17   14   16 1  
    18   16   17 1  
    19   17   18 1  
    20   17   19 1  
    21   19   20 1  
    22   20   21 1  
    23   21   22 1  
    24   21   29 1  
    25   22   23 1  
    26   22   24 1  
    27   24   25 1  
    28   24   26 1  
    29   25   31 1  
    30   26   27 1  
    31   26   28 1  
    32   26   30 1  
    33   28   29 1  
    34    1   32 1  
    35    3   33 1  
    36    4   34 1  
    37    4   35 1  
    38    4   36 1  
    39    5   37 1  
    40    5   38 1  
    41    6   39 1  
    42    6   40 1  
    43    7   41 1  
    44    9   42 1  
    45    9   43 1  
    46   10   44 1  
    47   10   45 1  
    48   10   46 1  
    49   11   47 1  
    50   12   48 1  
    51   12   49 1  
    52   12   50 1  
    53   13   51 1  
    54   13   52 1  
    55   14   53 1  
    56   15   54 1  
    57   15   55 1  
    58   15   56 1  
    59   16   57 1  
    60   17   58 1  
    61   18   59 1  
    62   19   60 1  
    63   21   61 1  
    64   22   62 1  
    65   23   63 1  
    66   24   64 1  
    67   25   65 1  
    68   25   66 1  
    69   27   67 1  
    70   28   68 1  
    71   28   69 1  
    72   30   70 1  
    73   30   71 1  
    74   30   72 1  
    75   31   73 1  
    76   31   74 1  
    77   31   75 1  
@<TRIPOS>SUBSTRUCTURE
     1 LLL         1

