### 
### Created by X-TOOL on Mon Aug  2 16:11:02 2021
### 

@<TRIPOS>MOLECULE
6nu1_ligand
   14    13     1     0     0
SMALL
GAST_HUCK


@<TRIPOS>ATOM
      1 N          59.3180  -35.6500   47.5440 N.4       1 CYS         0.2333
      2 CA         60.2420  -35.5730   46.4180 C.3       1 CYS         0.0372
      3 C          59.7960  -36.5230   45.3080 C.2       1 CYS         0.0852
      4 O          60.2870  -36.4560   44.1780 O.co2     1 CYS        -0.5642
      5 CB         61.6730  -35.8980   46.8640 C.3       1 CYS         0.0457
      6 SG         61.9050  -37.5770   47.5380 S.3       1 CYS        -0.1708
      7 OXT        58.9240  -37.3730   45.5170 O.co2     1 CYS        -0.5642
      8 H1         59.6205  -35.0202   48.2705 H         1 CYS         0.2010
      9 H2         59.3018  -36.5923   47.9015 H         1 CYS         0.2010
     10 H3         58.3932  -35.3907   47.2381 H         1 CYS         0.2010
     11 H4         60.2269  -34.5457   46.0249 H         1 CYS         0.1032
     12 H5         61.9611  -35.1750   47.6413 H         1 CYS         0.0448
     13 H6         62.3362  -35.7846   45.9938 H         1 CYS         0.0448
     14 H7         61.3147  -37.6979   48.3461 H         1 CYS         0.1019
@<TRIPOS>BOND
     1    1    2 1  
     2    2    3 1  
     3    2    5 1  
     4    3    4 ar 
     5    3    7 ar 
     6    5    6 1  
     7    1    8 1  
     8    1    9 1  
     9    1   10 1  
    10    2   11 1  
    11    5   12 1  
    12    5   13 1  
    13    6   14 1  
@<TRIPOS>SUBSTRUCTURE
     1 CYS         1

