### 
### Created by X-TOOL on Mon Aug  2 16:11:02 2021
### 

@<TRIPOS>MOLECULE
6nu5_ligand
   14    13     1     0     0
SMALL
GAST_HUCK


@<TRIPOS>ATOM
      1 N          25.1890   -5.6890   44.0960 N.4       1 CYS         0.2333
      2 CA         25.0530   -4.5230   43.2290 C.3       1 CYS         0.0372
      3 C          26.2810   -3.6110   43.3520 C.2       1 CYS         0.0852
      4 O          26.4160   -2.5940   42.6470 O.co2     1 CYS        -0.5642
      5 CB         23.7760   -3.7550   43.5640 C.3       1 CYS         0.0457
      6 SG         23.7260   -3.1950   45.2880 S.3       1 CYS        -0.1708
      7 OXT        27.1940   -3.9060   44.1440 O.co2     1 CYS        -0.5642
      8 H1         24.3742   -6.2749   44.0014 H         1 CYS         0.2010
      9 H2         25.2764   -5.3872   45.0538 H         1 CYS         0.2010
     10 H3         26.0102   -6.2104   43.8316 H         1 CYS         0.2010
     11 H4         24.9843   -4.8716   42.1880 H         1 CYS         0.1032
     12 H5         22.9127   -4.4120   43.3826 H         1 CYS         0.0448
     13 H6         23.7120   -2.8754   42.9066 H         1 CYS         0.0448
     14 H7         23.7759   -3.9937   45.9011 H         1 CYS         0.1019
@<TRIPOS>BOND
     1    1    2 1  
     2    2    3 1  
     3    2    5 1  
     4    3    4 ar 
     5    3    7 ar 
     6    5    6 1  
     7    1    8 1  
     8    1    9 1  
     9    1   10 1  
    10    2   11 1  
    11    5   12 1  
    12    5   13 1  
    13    6   14 1  
@<TRIPOS>SUBSTRUCTURE
     1 CYS         1

