### 
### Created by X-TOOL on Mon Aug  2 16:15:23 2021
### 

@<TRIPOS>MOLECULE
6nv7_ligand
   91    93     1     0     0
SMALL
GAST_HUCK


@<TRIPOS>ATOM
      1 C15        -4.9910  -20.9700   40.8570 C.3       1 L3J        -0.0265
      2 C17        -5.0160  -20.0870   42.1400 C.3       1 L3J        -0.0608
      3 C20        -0.1380  -17.5710   31.7670 C.ar      1 L3J        -0.0579
      4 C21         0.8700  -17.3450   30.8110 C.ar      1 L3J        -0.0536
      5 C22         0.6570  -16.3020   29.7040 C.3       1 L3J        -0.0220
      6 C24        -1.8270  -15.6380   29.2480 C.3       1 L3J        -0.0416
      7 C26        -3.1970  -15.0070   31.3360 C.ar      1 L3J        -0.0498
      8 C28        -2.9150  -14.1140   33.5810 C.ar      1 L3J        -0.0752
      9 O01        -0.6810  -18.9740   34.9490 O.2       1 L3J        -0.3847
     10 C02        -1.0700  -18.6950   33.7670 C.2       1 L3J         0.2001
     11 N03        -2.4260  -18.5660   33.5750 N.am      1 L3J        -0.2763
     12 C04        -3.5660  -18.6160   34.5310 C.3       1 L3J         0.0905
     13 C05        -4.5980  -17.5940   33.9280 C.3       1 L3J         0.0073
     14 C06        -4.2200  -20.0560   34.8720 C.3       1 L3J        -0.0062
     15 N07        -3.3040  -21.1890   35.0570 N.4       1 L3J         0.2497
     16 C08        -2.5540  -21.2850   36.3330 C.3       1 L3J         0.0928
     17 C09        -1.9770  -22.7090   36.6040 C.3       1 L3J         0.1121
     18 O10        -0.5980  -22.5360   36.6160 O.3       1 L3J        -0.3840
     19 C11        -2.4620  -23.3260   37.9380 C.3       1 L3J        -0.0314
     20 C12        -3.1560  -20.6040   37.6320 C.2       1 L3J         0.2271
     21 N13        -4.3410  -20.8770   38.3040 N.am      1 L3J        -0.2820
     22 C14        -4.8010  -20.1280   39.5430 C.3       1 L3J         0.0334
     23 C16        -6.2530  -21.8350   40.8110 C.3       1 L3J        -0.0608
     24 O18        -2.4290  -19.6890   38.1030 O.2       1 L3J        -0.3908
     25 C19         0.0450  -18.5410   32.7800 C.ar      1 L3J         0.0278
     26 C23        -0.4430  -15.2430   29.7840 C.3       1 L3J        -0.0417
     27 C25        -3.0480  -14.9250   29.8120 C.3       1 L3J        -0.0206
     28 C27        -2.7580  -13.9890   32.1930 C.ar      1 L3J        -0.0673
     29 C29        -3.4990  -15.2530   34.1450 C.ar      1 L3J        -0.0672
     30 C30        -3.9560  -16.3120   33.3360 C.ar      1 L3J        -0.0474
     31 C31        -3.7700  -16.1300   31.9510 C.ar      1 L3J        -0.0591
     32 C32         2.0540  -18.0950   30.9210 C.ar      1 L3J        -0.0403
     33 C33         2.2790  -19.0550   31.9290 C.ar      1 L3J         0.0638
     34 N34         3.5190  -19.7870   31.9990 N.am      1 L3J        -0.1792
     35 C35         4.1520  -19.9690   33.3700 C.3       1 L3J         0.0552
     36 C36         4.5210  -18.6420   34.1130 C.3       1 L3J        -0.0327
     37 C37         5.2410  -17.5840   33.2960 C.3       1 L3J        -0.0633
     38 S38         4.2920  -20.4050   30.6340 S.o2      1 L3J         0.0594
     39 O39         3.3040  -20.5700   29.6430 O.2       1 L3J        -0.1500
     40 C40         5.4380  -19.2280   30.1020 C.3       1 L3J         0.0790
     41 O41         5.0370  -21.5650   30.9660 O.2       1 L3J        -0.1500
     42 C42         1.2430  -19.2390   32.8500 C.ar      1 L3J        -0.0324
     43 H1         -4.1259  -21.6449   40.9351 H         1 L3J         0.0315
     44 H2         -5.1508  -20.7280   43.0237 H         1 L3J         0.0233
     45 H3         -5.8485  -19.3709   42.0761 H         1 L3J         0.0233
     46 H4         -4.0664  -19.5386   42.2263 H         1 L3J         0.0233
     47 H5         -1.0582  -16.9994   31.7268 H         1 L3J         0.0465
     48 H6          0.4709  -16.8687   28.7798 H         1 L3J         0.0423
     49 H7          1.6058  -15.7529   29.6127 H         1 L3J         0.0423
     50 H8         -1.9578  -16.7125   29.4435 H         1 L3J         0.0289
     51 H9         -1.8188  -15.4611   28.1624 H         1 L3J         0.0289
     52 H10        -2.5775  -13.3130   34.2288 H         1 L3J         0.0582
     53 H11        -2.6936  -18.4111   32.6240 H         1 L3J         0.1852
     54 H12        -3.2060  -18.2206   35.4923 H         1 L3J         0.0632
     55 H13        -5.2925  -17.2941   34.7266 H         1 L3J         0.0449
     56 H14        -5.1567  -18.1006   33.1273 H         1 L3J         0.0449
     57 H15        -4.8999  -20.3132   34.0464 H         1 L3J         0.0839
     58 H16        -4.7977  -19.9440   35.8014 H         1 L3J         0.0839
     59 H17        -2.6244  -21.1480   34.3137 H         1 L3J         0.2037
     60 H18        -3.8496  -22.0318   34.9673 H         1 L3J         0.2037
     61 H19        -1.6612  -20.6745   36.1328 H         1 L3J         0.1125
     62 H20        -2.2657  -23.3842   35.7850 H         1 L3J         0.0674
     63 H21        -0.3628  -21.9234   37.3029 H         1 L3J         0.2102
     64 H22        -2.0180  -24.3246   38.0629 H         1 L3J         0.0258
     65 H23        -3.5586  -23.4113   37.9253 H         1 L3J         0.0258
     66 H24        -2.1540  -22.6807   38.7739 H         1 L3J         0.0258
     67 H25        -4.9247  -21.6086   37.9518 H         1 L3J         0.1853
     68 H26        -4.0558  -19.3470   39.7543 H         1 L3J         0.0522
     69 H27        -5.7674  -19.6585   39.3071 H         1 L3J         0.0522
     70 H28        -6.3424  -22.4032   41.7486 H         1 L3J         0.0233
     71 H29        -6.1881  -22.5335   39.9637 H         1 L3J         0.0233
     72 H30        -7.1354  -21.1899   40.6877 H         1 L3J         0.0233
     73 H31        -0.1030  -14.3666   29.2127 H         1 L3J         0.0289
     74 H32        -0.5626  -14.9671   30.8421 H         1 L3J         0.0289
     75 H33        -3.9446  -15.3707   29.3566 H         1 L3J         0.0425
     76 H34        -2.9835  -13.8633   29.5317 H         1 L3J         0.0425
     77 H35        -2.2945  -13.1000   31.7809 H         1 L3J         0.0499
     78 H36        -3.6016  -15.3220   35.2219 H         1 L3J         0.0499
     79 H37        -4.1003  -16.9320   31.3008 H         1 L3J         0.0494
     80 H38         2.8371  -17.9260   30.1907 H         1 L3J         0.0451
     81 H39         5.0734  -20.5566   33.2445 H         1 L3J         0.0554
     82 H40         3.4442  -20.5270   34.0006 H         1 L3J         0.0554
     83 H41         5.1674  -18.9042   34.9635 H         1 L3J         0.0284
     84 H42         3.5866  -18.1972   34.4860 H         1 L3J         0.0284
     85 H43         5.4424  -16.7067   33.9282 H         1 L3J         0.0230
     86 H44         4.6108  -17.2859   32.4452 H         1 L3J         0.0230
     87 H45         6.1915  -17.9929   32.9228 H         1 L3J         0.0230
     88 H46         5.9609  -19.6026   29.2096 H         1 L3J         0.0488
     89 H47         6.1683  -19.0392   30.9026 H         1 L3J         0.0488
     90 H48         4.9149  -18.2925   29.8547 H         1 L3J         0.0488
     91 H49         1.3810  -19.9559   33.6513 H         1 L3J         0.0478
@<TRIPOS>BOND
     1    1    2 1  
     2   22    1 1  
     3    1   23 1  
     4    3    4 ar 
     5   25    3 ar 
     6    4    5 1  
     7    4   32 ar 
     8    5   26 1  
     9   26    6 1  
    10    6   27 1  
    11   27    7 1  
    12    7   28 ar 
    13    7   31 ar 
    14   28    8 ar 
    15    8   29 ar 
    16   10    9 2  
    17   11   10 am 
    18   10   25 1  
    19   12   11 1  
    20   12   13 1  
    21   14   12 1  
    22   13   30 1  
    23   15   14 1  
    24   16   15 1  
    25   16   17 1  
    26   20   16 1  
    27   17   18 1  
    28   17   19 1  
    29   21   20 am 
    30   20   24 2  
    31   21   22 1  
    32   25   42 ar 
    33   29   30 ar 
    34   30   31 ar 
    35   32   33 ar 
    36   33   34 1  
    37   33   42 ar 
    38   34   35 1  
    39   34   38 am 
    40   35   36 1  
    41   36   37 1  
    42   38   39 2  
    43   38   40 1  
    44   38   41 2  
    45    1   43 1  
    46    2   44 1  
    47    2   45 1  
    48    2   46 1  
    49    3   47 1  
    50    5   48 1  
    51    5   49 1  
    52    6   50 1  
    53    6   51 1  
    54    8   52 1  
    55   11   53 1  
    56   12   54 1  
    57   13   55 1  
    58   13   56 1  
    59   14   57 1  
    60   14   58 1  
    61   15   59 1  
    62   15   60 1  
    63   16   61 1  
    64   17   62 1  
    65   18   63 1  
    66   19   64 1  
    67   19   65 1  
    68   19   66 1  
    69   21   67 1  
    70   22   68 1  
    71   22   69 1  
    72   23   70 1  
    73   23   71 1  
    74   23   72 1  
    75   26   73 1  
    76   26   74 1  
    77   27   75 1  
    78   27   76 1  
    79   28   77 1  
    80   29   78 1  
    81   31   79 1  
    82   32   80 1  
    83   35   81 1  
    84   35   82 1  
    85   36   83 1  
    86   36   84 1  
    87   37   85 1  
    88   37   86 1  
    89   37   87 1  
    90   40   88 1  
    91   40   89 1  
    92   40   90 1  
    93   42   91 1  
@<TRIPOS>SUBSTRUCTURE
     1 L3J         1

