### 
### Created by X-TOOL on Mon Aug  2 16:10:19 2021
### 

@<TRIPOS>MOLECULE
6nvg_ligand
   54    56     1     0     0
SMALL
GAST_HUCK


@<TRIPOS>ATOM
      1 C1         22.2320   -3.7370   -6.3970 C.ar      1 XL8         0.0906
      2 C2         20.9980   -4.3840   -6.3780 C.ar      1 XL8         0.0598
      3 C3         19.9290   -3.9680   -7.1740 C.ar      1 XL8        -0.0019
      4 C4         20.1160   -2.8430   -7.9480 C.ar      1 XL8         0.0598
      5 C5         21.3360   -2.1580   -7.9560 C.ar      1 XL8         0.0906
      6 C6         22.3920   -2.6140   -7.1820 C.ar      1 XL8        -0.0105
      7 O1         23.2220   -4.1910   -5.5750 O.3       1 XL8        -0.3244
      8 O2         21.4720   -1.0680   -8.7590 O.3       1 XL8        -0.3244
      9 C7         24.5540   -4.2760   -6.0710 C.3       1 XL8         0.0594
     10 C8         22.6790   -0.3150   -8.6980 C.3       1 XL8         0.0594
     11 CL1        20.8090   -5.8000   -5.4010 Cl        1 XL8        -0.0951
     12 CL2        18.8380   -2.3690   -9.0220 Cl        1 XL8        -0.0951
     13 C9         18.6280   -4.7360   -7.2150 C.3       1 XL8         0.1011
     14 O3         18.8140   -5.9590   -7.9570 O.3       1 XL8        -0.3003
     15 C10        17.9860   -7.0310   -7.7170 C.ar      1 XL8         0.1329
     16 C11        16.7080   -6.9610   -7.1760 C.ar      1 XL8         0.0445
     17 N1         15.9650   -8.0600   -7.0200 N.ar      1 XL8        -0.2596
     18 C12        16.5300   -9.2360   -7.3810 C.ar      1 XL8         0.2007
     19 N2         17.7600   -9.3760   -7.9110 N.ar      1 XL8        -0.2596
     20 C13        18.4710   -8.2620   -8.0880 C.ar      1 XL8         0.0445
     21 N3         15.8490  -10.3960   -7.1650 N.pl3     1 XL8        -0.2507
     22 C14        14.5090  -10.5310   -6.7320 C.ar      1 XL8         0.1011
     23 C15        13.5290  -10.9750   -7.6360 C.ar      1 XL8         0.0928
     24 C16        12.2120  -11.0670   -7.1890 C.ar      1 XL8        -0.0361
     25 C17        11.8920  -10.6780   -5.8970 C.ar      1 XL8         0.0149
     26 C18        12.8440  -10.1880   -5.0240 C.ar      1 XL8        -0.0593
     27 C19        14.1620  -10.1380   -5.4430 C.ar      1 XL8         0.0505
     28 N4         13.9670  -11.4170   -8.9140 N.am      1 XL8        -0.2369
     29 C20        13.2810  -11.3560  -10.0790 C.2       1 XL8         0.2007
     30 C21        13.9840  -11.9360  -11.2920 C.3       1 XL8         0.0398
     31 C22        15.4810  -11.6810  -11.3700 C.3       1 XL8        -0.0478
     32 O4         12.1260  -10.9600  -10.1280 O.2       1 XL8        -0.3862
     33 CL3        15.3700   -9.5890   -4.3250 Cl        1 XL8        -0.0845
     34 CL4        10.2370  -10.7380   -5.3500 Cl        1 XL8        -0.0854
     35 H1         23.3406   -2.0896   -7.1937 H         1 XL8         0.0410
     36 H2         25.2160   -4.6587   -5.2802 H         1 XL8         0.0578
     37 H3         24.8939   -3.2772   -6.3821 H         1 XL8         0.0578
     38 H4         24.5812   -4.9578   -6.9338 H         1 XL8         0.0578
     39 H5         22.6232    0.5252   -9.4058 H         1 XL8         0.0578
     40 H6         23.5285   -0.9617   -8.9629 H         1 XL8         0.0578
     41 H7         22.8178    0.0733   -7.6782 H         1 XL8         0.0578
     42 H8         17.8563   -4.1240   -7.7048 H         1 XL8         0.0778
     43 H9         18.3106   -4.9744   -6.1891 H         1 XL8         0.0778
     44 H10        16.3077   -5.9994   -6.8758 H         1 XL8         0.0827
     45 H11        19.4560   -8.3291   -8.5356 H         1 XL8         0.0827
     46 H12        16.3663  -11.2702   -7.3356 H         1 XL8         0.2119
     47 H13        11.4392  -11.4420   -7.8502 H         1 XL8         0.0471
     48 H14        12.5647   -9.8501   -4.0326 H         1 XL8         0.0472
     49 H15        14.8825  -11.8169   -8.9570 H         1 XL8         0.2224
     50 H16        13.5201  -11.5034  -12.1907 H         1 XL8         0.0504
     51 H17        13.8264  -13.0246  -11.2858 H         1 XL8         0.0504
     52 H18        15.8845  -12.1429  -12.2831 H         1 XL8         0.0254
     53 H19        15.9739  -12.1184  -10.4893 H         1 XL8         0.0254
     54 H20        15.6676  -10.5972  -11.3941 H         1 XL8         0.0254
@<TRIPOS>BOND
     1    1    2 ar 
     2    1    6 ar 
     3    1    7 1  
     4    2    3 ar 
     5    2   11 1  
     6    3    4 ar 
     7    3   13 1  
     8    4    5 ar 
     9    4   12 1  
    10    5    6 ar 
    11    5    8 1  
    12    7    9 1  
    13    8   10 1  
    14   13   14 1  
    15   14   15 1  
    16   15   16 ar 
    17   15   20 ar 
    18   16   17 ar 
    19   17   18 ar 
    20   18   19 ar 
    21   18   21 1  
    22   19   20 ar 
    23   21   22 1  
    24   22   23 ar 
    25   22   27 ar 
    26   23   24 ar 
    27   23   28 1  
    28   24   25 ar 
    29   25   26 ar 
    30   25   34 1  
    31   26   27 ar 
    32   27   33 1  
    33   28   29 am 
    34   29   30 1  
    35   29   32 2  
    36   30   31 1  
    37    6   35 1  
    38    9   36 1  
    39    9   37 1  
    40    9   38 1  
    41   10   39 1  
    42   10   40 1  
    43   10   41 1  
    44   13   42 1  
    45   13   43 1  
    46   16   44 1  
    47   20   45 1  
    48   21   46 1  
    49   24   47 1  
    50   26   48 1  
    51   28   49 1  
    52   30   50 1  
    53   30   51 1  
    54   31   52 1  
    55   31   53 1  
    56   31   54 1  
@<TRIPOS>SUBSTRUCTURE
     1 XL8         1

