### 
### Created by X-TOOL on Mon Aug  2 16:10:19 2021
### 

@<TRIPOS>MOLECULE
6nvh_ligand
   57    59     1     0     0
SMALL
GAST_HUCK


@<TRIPOS>ATOM
      1 C1          2.7410  -21.3690    8.4200 C.ar      1 XL6         0.0906
      2 C2          3.4220  -20.1500    8.4110 C.ar      1 XL6         0.0598
      3 C3          4.5690  -19.9670    7.6420 C.ar      1 XL6        -0.0019
      4 C4          4.9950  -21.0280    6.8730 C.ar      1 XL6         0.0598
      5 C5          4.3370  -22.2520    6.8590 C.ar      1 XL6         0.0906
      6 C6          3.1980  -22.4120    7.6270 C.ar      1 XL6        -0.0105
      7 O1          1.6310  -21.4800    9.2120 O.3       1 XL6        -0.3244
      8 O2          4.8580  -23.2270    6.0630 O.3       1 XL6        -0.3244
      9 C7          0.8600  -22.6800    9.1460 C.3       1 XL6         0.0594
     10 C8          4.7260  -24.5880    6.4800 C.3       1 XL6         0.0594
     11 CL1         2.8770  -18.8580    9.4310 Cl        1 XL6        -0.0951
     12 CL2         6.4020  -20.8170    5.9020 Cl        1 XL6        -0.0951
     13 C9          5.3380  -18.6720    7.6340 C.3       1 XL6         0.1010
     14 O3          6.4750  -18.8040    8.4970 O.3       1 XL6        -0.3005
     15 C10         7.5930  -18.0350    8.2660 C.ar      1 XL6         0.1326
     16 C11         8.8240  -18.5490    8.6210 C.ar      1 XL6         0.0441
     17 N1          9.9550  -17.8580    8.4440 N.ar      1 XL6        -0.2603
     18 C12         9.8240  -16.6220    7.9080 C.ar      1 XL6         0.1984
     19 N2          8.6600  -16.0520    7.5350 N.ar      1 XL6        -0.2603
     20 C13         7.5440  -16.7560    7.7310 C.ar      1 XL6         0.0441
     21 N3         10.9570  -15.9060    7.6810 N.pl3     1 XL6        -0.2555
     22 C14        11.0970  -14.5660    7.2290 C.ar      1 XL6         0.0878
     23 C15        11.6330  -13.6090    8.1070 C.ar      1 XL6         0.0850
     24 C16        11.7810  -12.2720    7.6490 C.ar      1 XL6        -0.0566
     25 C17        11.3600  -11.9230    6.3910 C.ar      1 XL6        -0.0932
     26 C18        10.8200  -12.8760    5.5460 C.ar      1 XL6        -0.0849
     27 C19        10.6830  -14.2050    5.9380 C.ar      1 XL6        -0.0346
     28 C20        10.0920  -15.1980    4.9730 C.3       1 XL6        -0.0373
     29 N4         12.0900  -14.0250    9.3790 N.am      1 XL6        -0.2386
     30 C21        11.9580  -13.3740   10.5530 C.2       1 XL6         0.2005
     31 C22        12.5920  -14.0750   11.7340 C.3       1 XL6         0.0398
     32 C23        12.1940  -15.5200   11.8760 C.3       1 XL6        -0.0478
     33 O4         11.3870  -12.3000   10.6570 O.2       1 XL6        -0.3863
     34 H1          2.6614  -23.3537    7.6094 H         1 XL6         0.0410
     35 H2          0.0092  -22.6077    9.8394 H         1 XL6         0.0578
     36 H3          1.4902  -23.5367    9.4270 H         1 XL6         0.0578
     37 H4          0.4866  -22.8200    8.1208 H         1 XL6         0.0578
     38 H5          5.1949  -25.2470    5.7344 H         1 XL6         0.0578
     39 H6          3.6596  -24.8410    6.5739 H         1 XL6         0.0578
     40 H7          5.2220  -24.7233    7.4524 H         1 XL6         0.0578
     41 H8          4.6932  -17.8570    7.9944 H         1 XL6         0.0778
     42 H9          5.6746  -18.4483    6.6109 H         1 XL6         0.0778
     43 H10         8.8752  -19.5408    9.0555 H         1 XL6         0.0827
     44 H11         6.5856  -16.3227    7.4686 H         1 XL6         0.0827
     45 H12        11.8393  -16.4056    7.8624 H         1 XL6         0.2092
     46 H13        12.2279  -11.5256    8.2957 H         1 XL6         0.0414
     47 H14        11.4509  -10.8956    6.0574 H         1 XL6         0.0465
     48 H15        10.4957  -12.5809    4.5546 H         1 XL6         0.0403
     49 H16        10.0586  -16.1916    5.4438 H         1 XL6         0.0363
     50 H17        10.7133  -15.2426    4.0663 H         1 XL6         0.0363
     51 H18         9.0723  -14.8854    4.7038 H         1 XL6         0.0363
     52 H19        12.5663  -14.9037    9.4119 H         1 XL6         0.2221
     53 H20        12.2967  -13.5435   12.6507 H         1 XL6         0.0504
     54 H21        13.6849  -14.0273   11.6183 H         1 XL6         0.0504
     55 H22        12.6955  -15.9539   12.7536 H         1 XL6         0.0254
     56 H23        12.4919  -16.0729   10.9729 H         1 XL6         0.0254
     57 H24        11.1038  -15.5891   12.0053 H         1 XL6         0.0254
@<TRIPOS>BOND
     1    1    2 ar 
     2    1    6 ar 
     3    1    7 1  
     4    2    3 ar 
     5    2   11 1  
     6    3    4 ar 
     7    3   13 1  
     8    4    5 ar 
     9    4   12 1  
    10    5    6 ar 
    11    5    8 1  
    12    7    9 1  
    13    8   10 1  
    14   13   14 1  
    15   14   15 1  
    16   15   16 ar 
    17   15   20 ar 
    18   16   17 ar 
    19   17   18 ar 
    20   18   19 ar 
    21   18   21 1  
    22   19   20 ar 
    23   21   22 1  
    24   22   23 ar 
    25   22   27 ar 
    26   23   24 ar 
    27   23   29 1  
    28   24   25 ar 
    29   25   26 ar 
    30   26   27 ar 
    31   27   28 1  
    32   29   30 am 
    33   30   31 1  
    34   30   33 2  
    35   31   32 1  
    36    6   34 1  
    37    9   35 1  
    38    9   36 1  
    39    9   37 1  
    40   10   38 1  
    41   10   39 1  
    42   10   40 1  
    43   13   41 1  
    44   13   42 1  
    45   16   43 1  
    46   20   44 1  
    47   21   45 1  
    48   24   46 1  
    49   25   47 1  
    50   26   48 1  
    51   28   49 1  
    52   28   50 1  
    53   28   51 1  
    54   29   52 1  
    55   31   53 1  
    56   31   54 1  
    57   32   55 1  
    58   32   56 1  
    59   32   57 1  
@<TRIPOS>SUBSTRUCTURE
     1 XL6         1

