### 
### Created by X-TOOL on Mon Aug  2 16:10:19 2021
### 

@<TRIPOS>MOLECULE
6nvi_ligand
   54    56     1     0     0
SMALL
GAST_HUCK


@<TRIPOS>ATOM
      1 C1          3.9070  -21.9860    6.5140 C.ar      1 XL7         0.0906
      2 C2          4.6060  -20.7800    6.5090 C.ar      1 XL7         0.0598
      3 C3          4.1810  -19.6880    7.2650 C.ar      1 XL7        -0.0019
      4 C4          3.0300  -19.8420    8.0360 C.ar      1 XL7         0.0598
      5 C5          2.3150  -21.0370    8.0420 C.ar      1 XL7         0.0906
      6 C6          2.7530  -22.1020    7.2690 C.ar      1 XL7        -0.0105
      7 O1          4.3640  -23.0110    5.7380 O.3       1 XL7        -0.3244
      8 O2          1.2040  -21.0940    8.8320 O.3       1 XL7        -0.3244
      9 C7          4.3370  -24.3310    6.2730 C.3       1 XL7         0.0594
     10 C8          0.4090  -22.2780    8.7930 C.3       1 XL7         0.0594
     11 C9          4.9650  -18.4030    7.2720 C.3       1 XL7         0.1010
     12 O3          6.1440  -18.5980    8.0690 O.3       1 XL7        -0.3004
     13 C10         7.2520  -17.8140    7.8430 C.ar      1 XL7         0.1327
     14 C11         7.1730  -16.5070    7.4030 C.ar      1 XL7         0.0443
     15 N1          8.2700  -15.7760    7.2020 N.ar      1 XL7        -0.2599
     16 C12         9.4540  -16.3750    7.4530 C.ar      1 XL7         0.1997
     17 N2          9.6120  -17.6410    7.8910 N.ar      1 XL7        -0.2599
     18 C13         8.4990  -18.3520    8.0820 C.ar      1 XL7         0.0443
     19 CL1         6.0310  -20.6290    5.5340 Cl        1 XL7        -0.0951
     20 CL2         2.4690  -18.5330    9.0230 Cl        1 XL7        -0.0951
     21 N3         10.5890  -15.6580    7.2370 N.pl3     1 XL7        -0.2531
     22 C14        10.7290  -14.3290    6.7870 C.ar      1 XL7         0.0969
     23 C15        11.2490  -13.3580    7.6560 C.ar      1 XL7         0.0907
     24 C16        11.3750  -12.0380    7.1950 C.ar      1 XL7        -0.0166
     25 C17        10.9890  -11.7390    5.9090 C.ar      1 XL7         0.1070
     26 C18        10.4820  -12.6810    5.0450 C.ar      1 XL7        -0.0397
     27 C19        10.3530  -13.9810    5.4890 C.ar      1 XL7         0.0484
     28 CL3         9.7260  -15.1830    4.4040 Cl        1 XL7        -0.0854
     29 F1         11.1190  -10.4570    5.4710 F         1 XL7        -0.1972
     30 N4         11.6250  -13.7250    8.9670 N.am      1 XL7        -0.2376
     31 C20        11.6460  -12.9520   10.0720 C.2       1 XL7         0.2007
     32 C21        12.0930  -13.6340   11.3120 C.3       1 XL7         0.0398
     33 O4         11.3170  -11.7620   10.0580 O.2       1 XL7        -0.3862
     34 C22        11.8970  -15.0890   11.5370 C.3       1 XL7        -0.0478
     35 H1          2.1897  -23.0281    7.2562 H         1 XL7         0.0410
     36 H2          4.7357  -25.0364    5.5290 H         1 XL7         0.0578
     37 H3          3.3008  -24.6055    6.5200 H         1 XL7         0.0578
     38 H4          4.9537  -24.3705    7.1830 H         1 XL7         0.0578
     39 H5         -0.4436  -22.1699    9.4795 H         1 XL7         0.0578
     40 H6          1.0197  -23.1400    9.0997 H         1 XL7         0.0578
     41 H7          0.0379  -22.4370    7.7698 H         1 XL7         0.0578
     42 H8          4.3537  -17.5967    7.7034 H         1 XL7         0.0778
     43 H9          5.2511  -18.1363    6.2439 H         1 XL7         0.0778
     44 H10         6.1999  -16.0668    7.2174 H         1 XL7         0.0827
     45 H11         8.5768  -19.3748    8.4327 H         1 XL7         0.0827
     46 H12        11.4702  -16.1555    7.4291 H         1 XL7         0.2107
     47 H13        11.7710  -11.2650    7.8436 H         1 XL7         0.0454
     48 H14        10.1901  -12.4083    4.0373 H         1 XL7         0.0452
     49 H15        11.9109  -14.6752    9.0912 H         1 XL7         0.2225
     50 H16        11.5815  -13.1249   12.1422 H         1 XL7         0.0504
     51 H17        13.1762  -13.4568   11.3848 H         1 XL7         0.0504
     52 H18        12.3060  -15.3664   12.5197 H         1 XL7         0.0254
     53 H19        12.4172  -15.6551   10.7503 H         1 XL7         0.0254
     54 H20        10.8226  -15.3231   11.5077 H         1 XL7         0.0254
@<TRIPOS>BOND
     1    1    2 ar 
     2    1    6 ar 
     3    1    7 1  
     4    2    3 ar 
     5    2   19 1  
     6    3    4 ar 
     7    3   11 1  
     8    4    5 ar 
     9    4   20 1  
    10    5    6 ar 
    11    5    8 1  
    12    7    9 1  
    13    8   10 1  
    14   11   12 1  
    15   12   13 1  
    16   13   14 ar 
    17   13   18 ar 
    18   14   15 ar 
    19   15   16 ar 
    20   16   17 ar 
    21   16   21 1  
    22   17   18 ar 
    23   21   22 1  
    24   22   23 ar 
    25   22   27 ar 
    26   23   24 ar 
    27   23   30 1  
    28   24   25 ar 
    29   25   26 ar 
    30   25   29 1  
    31   26   27 ar 
    32   27   28 1  
    33   30   31 am 
    34   31   32 1  
    35   31   33 2  
    36   32   34 1  
    37    6   35 1  
    38    9   36 1  
    39    9   37 1  
    40    9   38 1  
    41   10   39 1  
    42   10   40 1  
    43   10   41 1  
    44   11   42 1  
    45   11   43 1  
    46   14   44 1  
    47   18   45 1  
    48   21   46 1  
    49   24   47 1  
    50   26   48 1  
    51   30   49 1  
    52   32   50 1  
    53   32   51 1  
    54   34   52 1  
    55   34   53 1  
    56   34   54 1  
@<TRIPOS>SUBSTRUCTURE
     1 XL7         1

