### 
### Created by X-TOOL on Mon Aug  2 16:10:19 2021
### 

@<TRIPOS>MOLECULE
6nvj_ligand
   54    56     1     0     0
SMALL
GAST_HUCK


@<TRIPOS>ATOM
      1 C1         20.9380   -2.8000   -8.6210 C.ar      1 XL5         0.0906
      2 C2         19.7440   -3.4920   -8.6090 C.ar      1 XL5         0.0598
      3 C3         19.5420   -4.5930   -7.7740 C.ar      1 XL5        -0.0019
      4 C4         20.5850   -5.0040   -6.9630 C.ar      1 XL5         0.0598
      5 C5         21.7960   -4.3150   -6.9810 C.ar      1 XL5         0.0906
      6 C6         21.9740   -3.2250   -7.8120 C.ar      1 XL5        -0.0105
      7 O1         20.9780   -1.7440   -9.4780 O.3       1 XL5        -0.3244
      8 O2         22.8150   -4.7060   -6.1800 O.3       1 XL5        -0.3244
      9 C7         22.0020   -0.7670   -9.3490 C.3       1 XL5         0.0594
     10 C8         24.0820   -4.8550   -6.7950 C.3       1 XL5         0.0594
     11 CL1        18.4810   -2.9280   -9.6560 Cl        1 XL5        -0.0951
     12 CL2        20.3590   -6.3720   -5.9100 Cl        1 XL5        -0.0951
     13 C9         18.2460   -5.3470   -7.7840 C.3       1 XL5         0.1010
     14 O3         18.4520   -6.5350   -8.5630 O.3       1 XL5        -0.3005
     15 C10        17.6280   -7.6100   -8.3540 C.ar      1 XL5         0.1327
     16 C11        16.3330   -7.5050   -7.8680 C.ar      1 XL5         0.0442
     17 N1         15.5630   -8.5810   -7.7300 N.ar      1 XL5        -0.2600
     18 C12        16.1030   -9.7640   -8.0790 C.ar      1 XL5         0.1993
     19 N2         17.3440   -9.9480   -8.5560 N.ar      1 XL5        -0.2600
     20 C13        18.1050   -8.8560   -8.6870 C.ar      1 XL5         0.0442
     21 N3         15.3450  -10.8760   -7.9260 N.pl3     1 XL5        -0.2521
     22 C14        14.0350  -10.9600   -7.4280 C.ar      1 XL5         0.1201
     23 C15        13.0380  -11.4910   -8.2480 C.ar      1 XL5         0.0899
     24 C16        11.7200  -11.5790   -7.7170 C.ar      1 XL5        -0.0538
     25 C17        11.4430  -11.0980   -6.4470 C.ar      1 XL5        -0.0887
     26 C18        12.4380  -10.5640   -5.6570 C.ar      1 XL5        -0.0531
     27 C19        13.7160  -10.5010   -6.1590 C.ar      1 XL5         0.1418
     28 N4         13.4390  -12.0310   -9.4930 N.am      1 XL5        -0.2379
     29 C20        12.7690  -12.0370  -10.6550 C.2       1 XL5         0.2006
     30 C21        13.4940  -12.7450  -11.7800 C.3       1 XL5         0.0398
     31 C22        14.8020  -12.0990  -12.1700 C.3       1 XL5        -0.0478
     32 O4         11.6920  -11.5060  -10.7970 O.2       1 XL5        -0.3862
     33 F1         14.6970   -9.9670   -5.3990 F         1 XL5        -0.1958
     34 H1         22.9248   -2.7046   -7.8289 H         1 XL5         0.0410
     35 H2         21.8727    0.0040  -10.1228 H         1 XL5         0.0578
     36 H3         22.9842   -1.2471   -9.4703 H         1 XL5         0.0578
     37 H4         21.9416   -0.3017   -8.3541 H         1 XL5         0.0578
     38 H5         24.8191   -5.1739   -6.0434 H         1 XL5         0.0578
     39 H6         24.3939   -3.8939   -7.2297 H         1 XL5         0.0578
     40 H7         24.0171   -5.6130   -7.5895 H         1 XL5         0.0578
     41 H8         17.4553   -4.7314   -8.2376 H         1 XL5         0.0778
     42 H9         17.9581   -5.6152   -6.7568 H         1 XL5         0.0778
     43 H10        15.9424   -6.5310   -7.5964 H         1 XL5         0.0827
     44 H11        19.1170   -8.9550   -9.0628 H         1 XL5         0.0827
     45 H12        15.7813  -11.7653   -8.2084 H         1 XL5         0.2102
     46 H13        10.9289  -12.0246   -8.3091 H         1 XL5         0.0435
     47 H14        10.4279  -11.1425   -6.0692 H         1 XL5         0.0471
     48 H15        12.2172  -10.2010   -4.6598 H         1 XL5         0.0448
     49 H16        14.3398  -12.4649   -9.5085 H         1 XL5         0.2223
     50 H17        12.8370  -12.7558  -12.6622 H         1 XL5         0.0504
     51 H18        13.6994  -13.7781  -11.4630 H         1 XL5         0.0504
     52 H19        15.2633  -12.6704  -12.9889 H         1 XL5         0.0254
     53 H20        15.4790  -12.0892  -11.3031 H         1 XL5         0.0254
     54 H21        14.6166  -11.0669  -12.5022 H         1 XL5         0.0254
@<TRIPOS>BOND
     1    1    2 ar 
     2    1    6 ar 
     3    1    7 1  
     4    2    3 ar 
     5    2   11 1  
     6    3    4 ar 
     7    3   13 1  
     8    4    5 ar 
     9    4   12 1  
    10    5    6 ar 
    11    5    8 1  
    12    7    9 1  
    13    8   10 1  
    14   13   14 1  
    15   14   15 1  
    16   15   16 ar 
    17   15   20 ar 
    18   16   17 ar 
    19   17   18 ar 
    20   18   19 ar 
    21   18   21 1  
    22   19   20 ar 
    23   21   22 1  
    24   22   23 ar 
    25   22   27 ar 
    26   23   24 ar 
    27   23   28 1  
    28   24   25 ar 
    29   25   26 ar 
    30   26   27 ar 
    31   27   33 1  
    32   28   29 am 
    33   29   30 1  
    34   29   32 2  
    35   30   31 1  
    36    6   34 1  
    37    9   35 1  
    38    9   36 1  
    39    9   37 1  
    40   10   38 1  
    41   10   39 1  
    42   10   40 1  
    43   13   41 1  
    44   13   42 1  
    45   16   43 1  
    46   20   44 1  
    47   21   45 1  
    48   24   46 1  
    49   25   47 1  
    50   26   48 1  
    51   28   49 1  
    52   30   50 1  
    53   30   51 1  
    54   31   52 1  
    55   31   53 1  
    56   31   54 1  
@<TRIPOS>SUBSTRUCTURE
     1 XL5         1

