### 
### Created by X-TOOL on Mon Aug  2 16:10:19 2021
### 

@<TRIPOS>MOLECULE
6nvl_ligand
   57    59     1     0     0
SMALL
GAST_HUCK


@<TRIPOS>ATOM
      1 C1         73.3540   16.1500   42.1800 C.ar      1 XL6         0.0906
      2 C2         73.4300   16.7690   43.4260 C.ar      1 XL6         0.0598
      3 C3         72.5710   17.8050   43.7830 C.ar      1 XL6        -0.0019
      4 C4         71.6310   18.2220   42.8360 C.ar      1 XL6         0.0598
      5 C5         71.5490   17.6240   41.5810 C.ar      1 XL6         0.0906
      6 C6         72.4110   16.5880   41.2630 C.ar      1 XL6        -0.0105
      7 O1         74.2400   15.1440   41.9120 O.3       1 XL6        -0.3244
      8 O2         70.5910   18.0920   40.7290 O.3       1 XL6        -0.3244
      9 C7         73.8760   14.1420   40.9650 C.3       1 XL6         0.0594
     10 C8         70.7040   17.8240   39.3350 C.3       1 XL6         0.0594
     11 CL1        74.6200   16.2290   44.5620 Cl        1 XL6        -0.0951
     12 CL2        70.5200   19.4970   43.2210 Cl        1 XL6        -0.0951
     13 C9         72.6750   18.4530   45.1380 C.3       1 XL6         0.1010
     14 O3         71.9280   17.7000   46.1050 O.3       1 XL6        -0.3005
     15 C10        72.2260   17.8300   47.4410 C.ar      1 XL6         0.1326
     16 C11        72.9660   18.8850   47.9440 C.ar      1 XL6         0.0441
     17 N1         73.2370   18.9860   49.2470 N.ar      1 XL6        -0.2603
     18 C12        72.7400   18.0220   50.0510 C.ar      1 XL6         0.1984
     19 N2         72.0140   16.9600   49.6350 N.ar      1 XL6        -0.2603
     20 C13        71.7550   16.8790   48.3280 C.ar      1 XL6         0.0441
     21 N3         73.0130   18.0890   51.3860 N.pl3     1 XL6        -0.2555
     22 C14        73.4460   19.1530   52.2160 C.ar      1 XL6         0.0878
     23 C15        74.6090   19.9120   51.9450 C.ar      1 XL6         0.0850
     24 C16        74.9760   20.9510   52.8310 C.ar      1 XL6        -0.0566
     25 C17        74.2360   21.1950   53.9550 C.ar      1 XL6        -0.0932
     26 C18        73.1130   20.4390   54.2210 C.ar      1 XL6        -0.0849
     27 C19        72.7070   19.4180   53.3750 C.ar      1 XL6        -0.0346
     28 C20        71.4740   18.6240   53.7180 C.3       1 XL6        -0.0373
     29 N4         75.3860   19.7110   50.7810 N.am      1 XL6        -0.2386
     30 C21        76.7360   19.6460   50.7110 C.2       1 XL6         0.2005
     31 C22        77.2650   19.4660   49.3060 C.3       1 XL6         0.0398
     32 C23        77.1620   20.7110   48.4740 C.3       1 XL6        -0.0478
     33 O4         77.4720   19.7220   51.6920 O.2       1 XL6        -0.3863
     34 H1         72.3480   16.1157   40.2893 H         1 XL6         0.0410
     35 H2         74.6951   13.4142   40.8682 H         1 XL6         0.0578
     36 H3         73.6858   14.6119   39.9888 H         1 XL6         0.0578
     37 H4         72.9664   13.6269   41.3075 H         1 XL6         0.0578
     38 H5         69.8512   18.2732   38.8050 H         1 XL6         0.0578
     39 H6         70.7069   16.7365   39.1697 H         1 XL6         0.0578
     40 H7         71.6412   18.2554   38.9534 H         1 XL6         0.0578
     41 H8         72.2728   19.4754   45.0839 H         1 XL6         0.0778
     42 H9         73.7312   18.4901   45.4432 H         1 XL6         0.0778
     43 H10        73.3337   19.6461   47.2653 H         1 XL6         0.0827
     44 H11        71.1635   16.0511   47.9542 H         1 XL6         0.0827
     45 H12        72.8791   17.1979   51.8850 H         1 XL6         0.2092
     46 H13        75.8488   21.5576   52.6182 H         1 XL6         0.0414
     47 H14        74.5322   21.9833   54.6376 H         1 XL6         0.0465
     48 H15        72.5339   20.6482   55.1131 H         1 XL6         0.0403
     49 H16        71.3016   17.8618   52.9438 H         1 XL6         0.0363
     50 H17        70.6061   19.2980   53.7686 H         1 XL6         0.0363
     51 H18        71.6137   18.1322   54.6920 H         1 XL6         0.0363
     52 H19        74.8867   19.6061   49.9210 H         1 XL6         0.2221
     53 H20        76.6891   18.6680   48.8146 H         1 XL6         0.0504
     54 H21        78.3231   19.1712   49.3654 H         1 XL6         0.0504
     55 H22        77.5617   20.5140   47.4683 H         1 XL6         0.0254
     56 H23        77.7415   21.5173   48.9473 H         1 XL6         0.0254
     57 H24        76.1074   21.0141   48.3965 H         1 XL6         0.0254
@<TRIPOS>BOND
     1    1    2 ar 
     2    1    6 ar 
     3    1    7 1  
     4    2    3 ar 
     5    2   11 1  
     6    3    4 ar 
     7    3   13 1  
     8    4    5 ar 
     9    4   12 1  
    10    5    6 ar 
    11    5    8 1  
    12    7    9 1  
    13    8   10 1  
    14   13   14 1  
    15   14   15 1  
    16   15   16 ar 
    17   15   20 ar 
    18   16   17 ar 
    19   17   18 ar 
    20   18   19 ar 
    21   18   21 1  
    22   19   20 ar 
    23   21   22 1  
    24   22   23 ar 
    25   22   27 ar 
    26   23   24 ar 
    27   23   29 1  
    28   24   25 ar 
    29   25   26 ar 
    30   26   27 ar 
    31   27   28 1  
    32   29   30 am 
    33   30   31 1  
    34   30   33 2  
    35   31   32 1  
    36    6   34 1  
    37    9   35 1  
    38    9   36 1  
    39    9   37 1  
    40   10   38 1  
    41   10   39 1  
    42   10   40 1  
    43   13   41 1  
    44   13   42 1  
    45   16   43 1  
    46   20   44 1  
    47   21   45 1  
    48   24   46 1  
    49   25   47 1  
    50   26   48 1  
    51   28   49 1  
    52   28   50 1  
    53   28   51 1  
    54   29   52 1  
    55   31   53 1  
    56   31   54 1  
    57   32   55 1  
    58   32   56 1  
    59   32   57 1  
@<TRIPOS>SUBSTRUCTURE
     1 XL6         1

