### 
### Created by X-TOOL on Mon Aug  2 16:15:24 2021
### 

@<TRIPOS>MOLECULE
6nw3_ligand
   96    98     1     0     0
SMALL
GAST_HUCK


@<TRIPOS>ATOM
      1 C10        -3.8700  -13.9560   29.2640 C.ar      1 L4J        -0.0498
      2 C11        -3.4970  -12.8720   30.0570 C.ar      1 L4J        -0.0673
      3 C12        -3.6630  -12.9260   31.4410 C.ar      1 L4J        -0.0752
      4 C13        -4.2010  -14.0530   32.0550 C.ar      1 L4J        -0.0672
      5 C14        -4.5990  -15.1470   31.2790 C.ar      1 L4J        -0.0474
      6 O01        -1.2940  -17.7150   33.0450 O.2       1 L4J        -0.3847
      7 C02        -1.5800  -17.4070   31.8910 C.2       1 L4J         0.2001
      8 C03        -0.4730  -17.2120   30.8800 C.ar      1 L4J         0.0278
      9 C04        -0.6830  -16.3820   29.7780 C.ar      1 L4J        -0.0579
     10 C05         0.3250  -16.1640   28.8370 C.ar      1 L4J        -0.0536
     11 C06         0.0310  -15.2680   27.6570 C.3       1 L4J        -0.0220
     12 C07        -1.1350  -14.2870   27.8610 C.3       1 L4J        -0.0417
     13 C08        -2.4790  -14.6850   27.2020 C.3       1 L4J        -0.0416
     14 C09        -3.6970  -13.9130   27.7610 C.3       1 L4J        -0.0206
     15 C15        -5.1700  -16.3830   31.9360 C.3       1 L4J         0.0073
     16 C16        -4.0720  -17.3280   32.4670 C.3       1 L4J         0.0905
     17 C17        -4.5430  -18.8100   32.7130 C.3       1 L4J        -0.0063
     18 N18        -3.4310  -19.5700   33.3670 N.4       1 L4J         0.2479
     19 C19        -3.7070  -20.2460   34.6530 C.3       1 L4J         0.0667
     20 C20        -3.8950  -19.2400   35.8100 C.2       1 L4J         0.2245
     21 N21        -5.0580  -19.3490   36.5540 N.am      1 L4J        -0.2821
     22 C22        -5.3460  -18.4490   37.6780 C.3       1 L4J         0.0334
     23 C23        -5.6070  -19.2270   38.9810 C.3       1 L4J        -0.0265
     24 C24        -5.6740  -18.3180   40.2100 C.3       1 L4J        -0.0608
     25 C25        -6.8780  -20.0680   38.8910 C.3       1 L4J        -0.0608
     26 O26        -3.0500  -18.3800   36.0580 O.2       1 L4J        -0.3909
     27 C27        -2.6150  -21.2950   35.0050 C.3       1 L4J         0.0079
     28 C28        -2.7850  -22.0000   36.3480 C.3       1 L4J        -0.0460
     29 C29        -1.6750  -23.0080   36.6610 C.3       1 L4J        -0.0556
     30 C30        -1.8640  -23.6690   38.0160 C.3       1 L4J        -0.0653
     31 N31        -2.9160  -17.2250   31.5560 N.am      1 L4J        -0.2763
     32 C32        -4.4170  -15.0900   29.8870 C.ar      1 L4J        -0.0591
     33 C33         1.5710  -16.7770   28.9960 C.ar      1 L4J        -0.0403
     34 C34         1.8220  -17.6100   30.0980 C.ar      1 L4J         0.0638
     35 N35         3.1160  -18.2450   30.2620 N.am      1 L4J        -0.1792
     36 C36         3.8480  -18.2040   31.5680 C.3       1 L4J         0.0552
     37 C37         4.0820  -16.7870   32.1760 C.3       1 L4J        -0.0327
     38 C38         4.4250  -15.6930   31.1620 C.3       1 L4J        -0.0633
     39 S39         3.8090  -19.0550   28.9840 S.o2      1 L4J         0.0594
     40 O40         4.6130  -20.0710   29.5480 O.2       1 L4J        -0.1500
     41 C41         4.8380  -17.9800   28.1800 C.3       1 L4J         0.0790
     42 O42         2.7820  -19.3660   28.0570 O.2       1 L4J        -0.1500
     43 C43         0.7840  -17.8110   31.0310 C.ar      1 L4J        -0.0324
     44 H1         -3.0769  -11.9849   29.5971 H         1 L4J         0.0499
     45 H2         -3.3684  -12.0772   32.0474 H         1 L4J         0.0582
     46 H3         -4.3115  -14.0832   33.1329 H         1 L4J         0.0499
     47 H4         -1.6448  -15.8985   29.6505 H         1 L4J         0.0465
     48 H5         -0.2078  -15.9072   26.7942 H         1 L4J         0.0423
     49 H6          0.9361  -14.6818   27.4397 H         1 L4J         0.0423
     50 H7         -0.8325  -13.3136   27.4475 H         1 L4J         0.0289
     51 H8         -1.3067  -14.1883   28.9430 H         1 L4J         0.0289
     52 H9         -2.6428  -15.7599   27.3685 H         1 L4J         0.0289
     53 H10        -2.4084  -14.4877   26.1222 H         1 L4J         0.0289
     54 H11        -3.5945  -12.8591   27.4629 H         1 L4J         0.0425
     55 H12        -4.6037  -14.3367   27.3045 H         1 L4J         0.0425
     56 H13        -5.7772  -16.9270   31.1975 H         1 L4J         0.0449
     57 H14        -5.8068  -16.0734   32.7778 H         1 L4J         0.0449
     58 H15        -3.7558  -16.9416   33.4471 H         1 L4J         0.0632
     59 H16        -4.7969  -19.2811   31.7520 H         1 L4J         0.0839
     60 H17        -5.4270  -18.8127   33.3676 H         1 L4J         0.0839
     61 H18        -2.6782  -18.9191   33.5273 H         1 L4J         0.2036
     62 H19        -3.1299  -20.2782   32.7159 H         1 L4J         0.2036
     63 H20        -4.6563  -20.7891   34.5347 H         1 L4J         0.1099
     64 H21        -5.7202  -20.0606   36.3192 H         1 L4J         0.1852
     65 H22        -6.2368  -17.8508   37.4360 H         1 L4J         0.0522
     66 H23        -4.4854  -17.7807   37.8287 H         1 L4J         0.0522
     67 H24        -4.7600  -19.9143   39.1234 H         1 L4J         0.0315
     68 H25        -5.8616  -18.9270   41.1066 H         1 L4J         0.0233
     69 H26        -6.4892  -17.5903   40.0839 H         1 L4J         0.0233
     70 H27        -4.7194  -17.7833   40.3231 H         1 L4J         0.0233
     71 H28        -6.8247  -20.7194   38.0062 H         1 L4J         0.0233
     72 H29        -7.7514  -19.4047   38.8059 H         1 L4J         0.0233
     73 H30        -6.9737  -20.6860   39.7960 H         1 L4J         0.0233
     74 H31        -1.6425  -20.7811   35.0135 H         1 L4J         0.0346
     75 H32        -2.6171  -22.0628   34.2173 H         1 L4J         0.0346
     76 H33        -3.7466  -22.5341   36.3402 H         1 L4J         0.0269
     77 H34        -2.7953  -21.2379   37.1411 H         1 L4J         0.0269
     78 H35        -0.7082  -22.4834   36.6548 H         1 L4J         0.0263
     79 H36        -1.6746  -23.7868   35.8842 H         1 L4J         0.0263
     80 H37        -1.0449  -24.3814   38.1938 H         1 L4J         0.0230
     81 H38        -2.8251  -24.2038   38.0322 H         1 L4J         0.0230
     82 H39        -1.8587  -22.9004   38.8029 H         1 L4J         0.0230
     83 H40        -3.1140  -17.0018   30.6016 H         1 L4J         0.1852
     84 H41        -4.7053  -15.9405   29.2799 H         1 L4J         0.0494
     85 H42         2.3505  -16.6078   28.2620 H         1 L4J         0.0451
     86 H43         4.8319  -18.6722   31.4173 H         1 L4J         0.0554
     87 H44         3.2700  -18.7915   32.2965 H         1 L4J         0.0554
     88 H45         4.9118  -16.8575   32.8947 H         1 L4J         0.0284
     89 H46         3.1645  -16.4869   32.7035 H         1 L4J         0.0284
     90 H47         4.5700  -14.7379   31.6881 H         1 L4J         0.0230
     91 H48         3.6021  -15.5921   30.4390 H         1 L4J         0.0230
     92 H49         5.3494  -15.9627   30.6302 H         1 L4J         0.0230
     93 H50         5.3101  -18.4919   27.3285 H         1 L4J         0.0488
     94 H51         5.6160  -17.6288   28.8738 H         1 L4J         0.0488
     95 H52         4.2572  -17.1203   27.8147 H         1 L4J         0.0488
     96 H53         0.9641  -18.4474   31.8898 H         1 L4J         0.0478
@<TRIPOS>BOND
     1    1    2 ar 
     2   14    1 1  
     3    1   32 ar 
     4    2    3 ar 
     5    3    4 ar 
     6    5    4 ar 
     7    5   15 1  
     8   32    5 ar 
     9    7    6 2  
    10    8    7 1  
    11    7   31 am 
    12    9    8 ar 
    13    8   43 ar 
    14   10    9 ar 
    15   11   10 1  
    16   10   33 ar 
    17   12   11 1  
    18   13   12 1  
    19   13   14 1  
    20   15   16 1  
    21   16   17 1  
    22   16   31 1  
    23   17   18 1  
    24   18   19 1  
    25   19   20 1  
    26   19   27 1  
    27   20   21 am 
    28   20   26 2  
    29   21   22 1  
    30   22   23 1  
    31   23   24 1  
    32   23   25 1  
    33   27   28 1  
    34   28   29 1  
    35   29   30 1  
    36   33   34 ar 
    37   34   35 1  
    38   34   43 ar 
    39   35   36 1  
    40   35   39 am 
    41   36   37 1  
    42   37   38 1  
    43   39   40 2  
    44   39   41 1  
    45   39   42 2  
    46    2   44 1  
    47    3   45 1  
    48    4   46 1  
    49    9   47 1  
    50   11   48 1  
    51   11   49 1  
    52   12   50 1  
    53   12   51 1  
    54   13   52 1  
    55   13   53 1  
    56   14   54 1  
    57   14   55 1  
    58   15   56 1  
    59   15   57 1  
    60   16   58 1  
    61   17   59 1  
    62   17   60 1  
    63   18   61 1  
    64   18   62 1  
    65   19   63 1  
    66   21   64 1  
    67   22   65 1  
    68   22   66 1  
    69   23   67 1  
    70   24   68 1  
    71   24   69 1  
    72   24   70 1  
    73   25   71 1  
    74   25   72 1  
    75   25   73 1  
    76   27   74 1  
    77   27   75 1  
    78   28   76 1  
    79   28   77 1  
    80   29   78 1  
    81   29   79 1  
    82   30   80 1  
    83   30   81 1  
    84   30   82 1  
    85   31   83 1  
    86   32   84 1  
    87   33   85 1  
    88   36   86 1  
    89   36   87 1  
    90   37   88 1  
    91   37   89 1  
    92   38   90 1  
    93   38   91 1  
    94   38   92 1  
    95   41   93 1  
    96   41   94 1  
    97   41   95 1  
    98   43   96 1  
@<TRIPOS>SUBSTRUCTURE
     1 L4J         1

