### 
### Created by X-TOOL on Mon Aug  2 16:15:24 2021
### 

@<TRIPOS>MOLECULE
6nwc_ligand
   45    47     1     0     0
SMALL
GAST_HUCK


@<TRIPOS>ATOM
      1 CAA        20.9000   32.2060  -10.0020 C.ar      1 L6P        -0.0102
      2 CAB        20.2170   32.7910   -8.9410 C.ar      1 L6P         0.0903
      3 CAC        19.1390   32.1310   -8.3630 C.ar      1 L6P        -0.0391
      4 CAD        18.7340   30.8880   -8.8520 C.ar      1 L6P        -0.0530
      5 CAE        19.4120   30.2920   -9.9120 C.ar      1 L6P        -0.0216
      6 CAF        20.4900   30.9660  -10.4920 C.ar      1 L6P        -0.0445
      7 CAG        20.6500   34.0790   -8.4550 C.1       1 L6P         0.0869
      8 CAI        21.9740   32.8950  -10.5830 C.3       1 L6P        -0.0016
      9 CAJ        22.7170   32.1710  -11.6990 C.3       1 L6P        -0.0365
     10 CAK        23.3750   32.3560  -10.3330 C.3       1 L6P        -0.0365
     11 CAL        19.0010   29.0430  -10.4060 C.3       1 L6P         0.0730
     12 CAM        19.7500   27.8570   -9.7490 C.2       1 L6P         0.1888
     13 CAO        22.0030   26.8890   -9.2040 C.3       1 L6P         0.0981
     14 CAQ        23.6470   28.3550   -7.2960 C.3       1 L6P        -0.0531
     15 CAR        22.2070   27.9650   -6.9750 C.3       1 L6P        -0.0512
     16 CAS        21.8400   26.6830   -7.6860 C.3       1 L6P        -0.0221
     17 CAT        23.4580   27.2740   -9.5080 C.3       1 L6P        -0.0221
     18 CAU        23.8000   28.5680   -8.7950 C.3       1 L6P        -0.0512
     19 CAV        21.6950   25.5860   -9.9650 C.2       1 L6P         0.0731
     20 NAH        21.0180   35.1140   -8.0810 N.1       1 L6P        -0.3398
     21 NAN        21.0980   27.9470   -9.7150 N.am      1 L6P        -0.2757
     22 OAP        19.1170   26.9020   -9.2970 O.2       1 L6P        -0.3938
     23 OAW        21.3560   25.7000  -11.1670 O.co2     1 L6P        -0.5454
     24 OAX        21.7970   24.5070   -9.3360 O.co2     1 L6P        -0.5454
     25 H1         18.6116   32.5826   -7.5306 H         1 L6P         0.0684
     26 H2         17.8859   30.3833   -8.4035 H         1 L6P         0.0533
     27 H3         21.0127   30.5209  -11.3309 H         1 L6P         0.0523
     28 H4         21.7781   33.9765  -10.6269 H         1 L6P         0.0486
     29 H5         23.0871   32.7333  -12.5689 H         1 L6P         0.0295
     30 H6         22.3886   31.1718  -12.0209 H         1 L6P         0.0295
     31 H7         23.5211   31.4898   -9.6710 H         1 L6P         0.0295
     32 H8         24.2197   33.0513  -10.2190 H         1 L6P         0.0295
     33 H9         19.1853   29.0167  -11.4901 H         1 L6P         0.0678
     34 H10        17.9241   28.9271  -10.2142 H         1 L6P         0.0678
     35 H11        24.3244   27.5520   -6.9700 H         1 L6P         0.0265
     36 H12        23.9002   29.2856   -6.7670 H         1 L6P         0.0265
     37 H13        21.5315   28.7685   -7.3038 H         1 L6P         0.0265
     38 H14        22.1036   27.8203   -5.8895 H         1 L6P         0.0265
     39 H15        22.5030   25.8720   -7.3503 H         1 L6P         0.0282
     40 H16        20.7961   26.4210   -7.4591 H         1 L6P         0.0282
     41 H17        23.5822   27.4095  -10.5925 H         1 L6P         0.0282
     42 H18        24.1289   26.4752   -9.1591 H         1 L6P         0.0282
     43 H19        24.8372   28.8538   -9.0242 H         1 L6P         0.0265
     44 H20        23.1182   29.3648   -9.1271 H         1 L6P         0.0265
     45 H21        21.5155   28.7879  -10.0593 H         1 L6P         0.1847
@<TRIPOS>BOND
     1    1    2 ar 
     2    6    1 ar 
     3    1    8 1  
     4    3    2 ar 
     5    2    7 1  
     6    4    3 ar 
     7    5    4 ar 
     8    5    6 ar 
     9   11    5 1  
    10    7   20 3  
    11    8    9 1  
    12    8   10 1  
    13   10    9 1  
    14   12   11 1  
    15   21   12 am 
    16   12   22 2  
    17   16   13 1  
    18   13   17 1  
    19   13   19 1  
    20   13   21 1  
    21   15   14 1  
    22   14   18 1  
    23   15   16 1  
    24   17   18 1  
    25   19   23 ar 
    26   19   24 ar 
    27    3   25 1  
    28    4   26 1  
    29    6   27 1  
    30    8   28 1  
    31    9   29 1  
    32    9   30 1  
    33   10   31 1  
    34   10   32 1  
    35   11   33 1  
    36   11   34 1  
    37   14   35 1  
    38   14   36 1  
    39   15   37 1  
    40   15   38 1  
    41   16   39 1  
    42   16   40 1  
    43   17   41 1  
    44   17   42 1  
    45   18   43 1  
    46   18   44 1  
    47   21   45 1  
@<TRIPOS>SUBSTRUCTURE
     1 L6P         1

