### 
### Created by X-TOOL on Mon Aug  2 16:11:02 2021
### 

@<TRIPOS>MOLECULE
6nwk_ligand
   57    60     1     0     0
SMALL
GAST_HUCK


@<TRIPOS>ATOM
      1 C1         70.6210  126.0670   11.6780 C.2       1 DEX        -0.0937
      2 C2         71.5860  125.6640   12.4820 C.2       1 DEX         0.0360
      3 C3         71.7350  124.2800   12.8790 C.2       1 DEX         0.2468
      4 C4         70.9750  123.3230   12.1010 C.2       1 DEX         0.0346
      5 C5         70.0560  123.7090   11.2100 C.2       1 DEX        -0.0755
      6 C6         69.1940  122.6890   10.5280 C.3       1 DEX        -0.0268
      7 C7         67.7000  123.0550   10.7320 C.3       1 DEX        -0.0384
      8 C8         67.4330  124.4170   10.2640 C.3       1 DEX        -0.0131
      9 C9         68.3030  125.4270   11.0760 C.3       1 DEX         0.1042
     10 C10        69.8250  125.1260   10.8460 C.3       1 DEX        -0.0156
     11 C11        67.9540  126.9560   10.8570 C.3       1 DEX         0.0761
     12 C12        66.4330  127.2050   10.9920 C.3       1 DEX        -0.0180
     13 C13        65.6110  126.2810   10.0930 C.3       1 DEX         0.0079
     14 C14        65.9580  124.8150   10.5060 C.3       1 DEX        -0.0292
     15 C15        64.8870  123.9900    9.8100 C.3       1 DEX        -0.0453
     16 C16        63.6070  124.8980    9.8510 C.3       1 DEX        -0.0088
     17 C17        64.0400  126.2810   10.3590 C.3       1 DEX         0.1387
     18 C18        65.8490  126.5860    8.6200 C.3       1 DEX        -0.0576
     19 C19        70.2360  125.2850    9.4260 C.3       1 DEX        -0.1015
     20 C20        63.3550  127.4570    9.6360 C.2       1 DEX         0.1842
     21 C21        63.2420  128.7900   10.3980 C.3       1 DEX         0.1213
     22 C22        62.6020  124.2650   10.7690 C.3       1 DEX        -0.0608
     23 F1         68.0810  125.2200   12.4050 F         1 DEX        -0.2564
     24 O1         72.4330  123.9450   13.8160 O.2       1 DEX        -0.2667
     25 O2         68.4490  127.4500    9.6370 O.3       1 DEX        -0.3901
     26 O3         63.8290  126.3950   11.7190 O.3       1 DEX        -0.3849
     27 O4         62.9270  127.3610    8.5080 O.2       1 DEX        -0.3272
     28 O5         63.1930  129.7770    9.4120 O.3       1 DEX        -0.3762
     29 H1         70.3983  127.1315   11.6213 H         1 DEX         0.0522
     30 H2         72.2955  126.3984   12.8604 H         1 DEX         0.1206
     31 H3         71.1574  122.2592   12.2460 H         1 DEX         0.1051
     32 H4         69.3903  121.6960   10.9586 H         1 DEX         0.0436
     33 H5         69.4243  122.6743    9.4525 H         1 DEX         0.0436
     34 H6         67.4539  122.9859   11.8019 H         1 DEX         0.0293
     35 H7         67.0746  122.3493   10.1656 H         1 DEX         0.0293
     36 H8         67.6688  124.4863    9.1918 H         1 DEX         0.0322
     37 H9         68.4512  127.5203   11.6596 H         1 DEX         0.0610
     38 H10        66.2196  128.2482   10.7162 H         1 DEX         0.0295
     39 H11        66.1382  127.0346   12.0380 H         1 DEX         0.0295
     40 H12        65.8008  124.7167   11.5902 H         1 DEX         0.0308
     41 H13        64.7121  123.0462   10.3473 H         1 DEX         0.0270
     42 H14        65.1768  123.7724    8.7714 H         1 DEX         0.0270
     43 H15        63.1745  124.9924    8.8440 H         1 DEX         0.0311
     44 H16        66.9300  126.5904    8.4165 H         1 DEX         0.0234
     45 H17        65.4262  127.5719    8.3767 H         1 DEX         0.0234
     46 H18        65.3629  125.8160    8.0029 H         1 DEX         0.0234
     47 H19        71.3086  125.0616    9.3275 H         1 DEX         0.0057
     48 H20        70.0457  126.3191    9.1028 H         1 DEX         0.0057
     49 H21        69.6579  124.5919    8.7971 H         1 DEX         0.0057
     50 H22        64.1175  128.9377   11.0473 H         1 DEX         0.0785
     51 H23        62.3263  128.8088   11.0072 H         1 DEX         0.0785
     52 H24        62.3156  123.2788   10.3749 H         1 DEX         0.0232
     53 H25        61.7108  124.9063   10.8352 H         1 DEX         0.0232
     54 H26        63.0432  124.1459   11.7696 H         1 DEX         0.0232
     55 H27        68.2908  128.3854    9.5878 H         1 DEX         0.2098
     56 H28        64.1036  127.2567   12.0098 H         1 DEX         0.2077
     57 H29        62.4379  129.6292    8.8548 H         1 DEX         0.2129
@<TRIPOS>BOND
     1    1    2 2  
     2    1   10 1  
     3    2    3 1  
     4    3    4 1  
     5    3   24 2  
     6    4    5 2  
     7    5    6 1  
     8    5   10 1  
     9    6    7 1  
    10    7    8 1  
    11    8    9 1  
    12    8   14 1  
    13    9   10 1  
    14    9   11 1  
    15    9   23 1  
    16   10   19 1  
    17   11   12 1  
    18   11   25 1  
    19   12   13 1  
    20   13   14 1  
    21   13   17 1  
    22   13   18 1  
    23   14   15 1  
    24   15   16 1  
    25   16   17 1  
    26   16   22 1  
    27   17   20 1  
    28   17   26 1  
    29   20   21 1  
    30   20   27 2  
    31   21   28 1  
    32    1   29 1  
    33    2   30 1  
    34    4   31 1  
    35    6   32 1  
    36    6   33 1  
    37    7   34 1  
    38    7   35 1  
    39    8   36 1  
    40   11   37 1  
    41   12   38 1  
    42   12   39 1  
    43   14   40 1  
    44   15   41 1  
    45   15   42 1  
    46   16   43 1  
    47   18   44 1  
    48   18   45 1  
    49   18   46 1  
    50   19   47 1  
    51   19   48 1  
    52   19   49 1  
    53   21   50 1  
    54   21   51 1  
    55   22   52 1  
    56   22   53 1  
    57   22   54 1  
    58   25   55 1  
    59   26   56 1  
    60   28   57 1  
@<TRIPOS>SUBSTRUCTURE
     1 DEX         1

