### 
### Created by X-TOOL on Mon Aug  2 16:11:02 2021
### 

@<TRIPOS>MOLECULE
6nwl_ligand
   56    59     1     0     0
SMALL
GAST_HUCK


@<TRIPOS>ATOM
      1 C1          0.9330  -29.5560   12.0410 C.3       1 HCY        -0.0610
      2 C2         -0.3950  -29.0100   12.5130 C.3       1 HCY         0.0243
      3 C3         -0.2210  -27.6170   13.0410 C.2       1 HCY         0.1764
      4 C4          0.7210  -26.7560   12.3380 C.2       1 HCY         0.0476
      5 C5          1.6010  -27.2230   11.4440 C.2       1 HCY        -0.0412
      6 C6          2.5050  -26.2780   10.7240 C.3       1 HCY        -0.0169
      7 C7          3.9840  -26.6890   10.8230 C.3       1 HCY        -0.0393
      8 C8          4.1550  -28.1010   10.3430 C.3       1 HCY        -0.0395
      9 C9          3.2600  -29.0380   11.1720 C.3       1 HCY        -0.0357
     10 C10         1.7400  -28.6560   11.0880 C.3       1 HCY        -0.0355
     11 C12         5.0130  -30.9250   10.9310 C.3       1 HCY        -0.0203
     12 C11         3.5150  -30.5550   10.8920 C.3       1 HCY         0.0500
     13 C13         5.8390  -30.0270   10.0270 C.3       1 HCY         0.0074
     14 C14         5.6190  -28.5590   10.4780 C.3       1 HCY        -0.0316
     15 C15         6.6640  -27.8090    9.6420 C.3       1 HCY        -0.0480
     16 C16         7.9090  -28.7600    9.6730 C.3       1 HCY        -0.0179
     17 C17         7.4010  -30.1610   10.1700 C.3       1 HCY         0.1362
     18 C18         5.4740  -30.2540    8.5610 C.3       1 HCY        -0.0577
     19 C19         1.1380  -28.7850    9.6660 C.3       1 HCY        -0.0889
     20 C20         7.9520  -31.3520    9.3720 C.2       1 HCY         0.1839
     21 C21         7.9840  -32.7000   10.0920 C.3       1 HCY         0.1213
     22 O1         -0.8480  -27.2240   14.0160 O.2       1 HCY        -0.3440
     23 O2          2.8740  -30.9650    9.6960 O.3       1 HCY        -0.3925
     24 O3          7.6890  -30.3490   11.5220 O.3       1 HCY        -0.3852
     25 O4          8.3630  -31.2540    8.2320 O.2       1 HCY        -0.3272
     26 O5          8.0360  -33.6590    9.0960 O.3       1 HCY        -0.3762
     27 H1          0.7393  -30.5059   11.5213 H         1 HCY         0.0172
     28 H2          1.5531  -29.7441   12.9298 H         1 HCY         0.0172
     29 H3         -0.7905  -29.6550   13.3115 H         1 HCY         0.0483
     30 H4         -1.1020  -28.9940   11.6705 H         1 HCY         0.0483
     31 H5          0.7086  -25.6877   12.5487 H         1 HCY         0.1318
     32 H6          2.3874  -25.2752   11.1605 H         1 HCY         0.0450
     33 H7          2.2161  -26.2523    9.6629 H         1 HCY         0.0450
     34 H8          4.3132  -26.6174   11.8701 H         1 HCY         0.0293
     35 H9          4.5921  -26.0161   10.2006 H         1 HCY         0.0293
     36 H10         3.8585  -28.1560    9.2852 H         1 HCY         0.0299
     37 H11         3.5522  -28.8765   12.2201 H         1 HCY         0.0212
     38 H12         5.1310  -31.9677   10.6012 H         1 HCY         0.0294
     39 H13         5.3782  -30.8235   11.9636 H         1 HCY         0.0294
     40 H14         3.0380  -31.1122   11.7118 H         1 HCY         0.0586
     41 H15         5.8819  -28.4586   11.5414 H         1 HCY         0.0308
     42 H16         6.9025  -26.8345   10.0930 H         1 HCY         0.0267
     43 H17         6.3093  -27.6593    8.6116 H         1 HCY         0.0267
     44 H18         8.6687  -28.3662   10.3642 H         1 HCY         0.0278
     45 H19         8.3414  -28.8501    8.6656 H         1 HCY         0.0278
     46 H20         4.3847  -30.1650    8.4364 H         1 HCY         0.0234
     47 H21         5.7972  -31.2596    8.2541 H         1 HCY         0.0234
     48 H22         5.9771  -29.5007    7.9370 H         1 HCY         0.0234
     49 H23         0.0755  -28.5012    9.6905 H         1 HCY         0.0112
     50 H24         1.2317  -29.8253    9.3211 H         1 HCY         0.0112
     51 H25         1.6793  -28.1200    8.9769 H         1 HCY         0.0112
     52 H26         7.0778  -32.8300   10.7018 H         1 HCY         0.0785
     53 H27         8.8727  -32.7689   10.7366 H         1 HCY         0.0785
     54 H28         2.9410  -31.9087    9.6096 H         1 HCY         0.2097
     55 H29         8.6286  -30.3015   11.6541 H         1 HCY         0.2077
     56 H30         8.8183  -33.5287    8.5730 H         1 HCY         0.2129
@<TRIPOS>BOND
     1    1    2 1  
     2    1   10 1  
     3    2    3 1  
     4    3    4 1  
     5    3   22 2  
     6    4    5 2  
     7    5    6 1  
     8    5   10 1  
     9    6    7 1  
    10    7    8 1  
    11    8    9 1  
    12    8   14 1  
    13    9   10 1  
    14    9   12 1  
    15   10   19 1  
    16   12   11 1  
    17   11   13 1  
    18   12   23 1  
    19   13   14 1  
    20   13   17 1  
    21   13   18 1  
    22   14   15 1  
    23   15   16 1  
    24   16   17 1  
    25   17   20 1  
    26   17   24 1  
    27   20   21 1  
    28   20   25 2  
    29   21   26 1  
    30    1   27 1  
    31    1   28 1  
    32    2   29 1  
    33    2   30 1  
    34    4   31 1  
    35    6   32 1  
    36    6   33 1  
    37    7   34 1  
    38    7   35 1  
    39    8   36 1  
    40    9   37 1  
    41   11   38 1  
    42   11   39 1  
    43   12   40 1  
    44   14   41 1  
    45   15   42 1  
    46   15   43 1  
    47   16   44 1  
    48   16   45 1  
    49   18   46 1  
    50   18   47 1  
    51   18   48 1  
    52   19   49 1  
    53   19   50 1  
    54   19   51 1  
    55   21   52 1  
    56   21   53 1  
    57   23   54 1  
    58   24   55 1  
    59   26   56 1  
@<TRIPOS>SUBSTRUCTURE
     1 HCY         1

