### 
### Created by X-TOOL on Mon Aug  2 16:15:24 2021
### 

@<TRIPOS>MOLECULE
6nxz_ligand
   20    19     1     0     0
SMALL
GAST_HUCK


@<TRIPOS>ATOM
      1 O7         -2.1580    0.2560    3.4470 O.3       1 D49        -0.3925
      2 C8         -0.8180   -0.2850    3.3490 C.3       1 D49         0.0702
      3 C9          0.2390    0.8120    3.3830 C.3       1 D49         0.0803
      4 O10         3.6840   -0.7830    2.8810 O.3       1 D49        -0.3829
      5 C11         4.4060   -1.9250    2.6080 C.3       1 D49         0.0364
      6 O35         0.1930    1.6930    2.2330 O.3       1 D49        -0.3895
      7 C36         1.6840    0.3400    3.5930 C.3       1 D49        -0.0012
      8 C37         2.2430   -0.8440    2.8340 C.3       1 D49         0.0497
      9 H1         -2.7878   -0.4548    3.4226 H         1 D49         0.2095
     10 H2         -0.7259   -0.8389    2.4031 H         1 D49         0.0583
     11 H3         -0.6478   -0.9696    4.1930 H         1 D49         0.0583
     12 H4         -0.0111    1.4275    4.2597 H         1 D49         0.0617
     13 H5          5.4812   -1.7066    2.6868 H         1 D49         0.0523
     14 H6          4.1756   -2.2697    1.5891 H         1 D49         0.0523
     15 H7          4.1375   -2.7100    3.3302 H         1 D49         0.0523
     16 H8          0.8728    2.3517    2.3128 H         1 D49         0.2099
     17 H9          1.7801    0.0980    4.6617 H         1 D49         0.0313
     18 H10         2.3296    1.1973    3.3516 H         1 D49         0.0313
     19 H11         1.8964   -1.7789    3.2985 H         1 D49         0.0560
     20 H12         1.9045   -0.8068    1.7880 H         1 D49         0.0560
@<TRIPOS>BOND
     1    2    1 1  
     2    3    2 1  
     3    3    6 1  
     4    7    3 1  
     5    4    5 1  
     6    8    4 1  
     7    7    8 1  
     8    1    9 1  
     9    2   10 1  
    10    2   11 1  
    11    3   12 1  
    12    5   13 1  
    13    5   14 1  
    14    5   15 1  
    15    6   16 1  
    16    7   17 1  
    17    7   18 1  
    18    8   19 1  
    19    8   20 1  
@<TRIPOS>SUBSTRUCTURE
     1 D49         1

