### 
### Created by X-TOOL on Mon Aug  2 16:15:24 2021
### 

@<TRIPOS>MOLECULE
6ny0_ligand
   20    19     1     0     0
SMALL
GAST_HUCK


@<TRIPOS>ATOM
      1 C18         3.8920   -1.1820    2.7970 C.3       1 LBA         0.0366
      2 C23        -0.5440    0.0400    3.8950 C.3       1 LBA         0.0754
      3 O19         3.0470   -0.0940    3.0130 O.3       1 LBA        -0.3804
      4 C20         1.8240   -0.3350    3.7000 C.3       1 LBA         0.0754
      5 C21         0.5960    0.0770    2.8820 C.3       1 LBA         0.1016
      6 O22         0.6350    1.4160    2.3140 O.3       1 LBA        -0.3872
      7 O24        -1.8170   -0.1740    3.2600 O.3       1 LBA        -0.3804
      8 C25        -2.7590    0.8030    3.3570 C.3       1 LBA         0.0366
      9 H1          4.7912   -0.8468    2.2593 H         1 LBA         0.0524
     10 H2          3.3675   -1.9403    2.1971 H         1 LBA         0.0524
     11 H3          4.1840   -1.6172    3.7641 H         1 LBA         0.0524
     12 H4         -0.5720    0.9982    4.4345 H         1 LBA         0.0586
     13 H5         -0.3602   -0.7771    4.6081 H         1 LBA         0.0586
     14 H6          1.8293    0.2372    4.6395 H         1 LBA         0.0586
     15 H7          1.7526   -1.4093    3.9253 H         1 LBA         0.0586
     16 H8          0.4332   -0.6482    2.0711 H         1 LBA         0.0639
     17 H9          1.3809    1.4896    1.7303 H         1 LBA         0.2100
     18 H10        -3.6684    0.4898    2.8233 H         1 LBA         0.0524
     19 H11        -2.3726    1.7307    2.9097 H         1 LBA         0.0524
     20 H12        -2.9977    0.9784    4.4164 H         1 LBA         0.0524
@<TRIPOS>BOND
     1    3    1 1  
     2    5    2 1  
     3    2    7 1  
     4    4    3 1  
     5    4    5 1  
     6    5    6 1  
     7    7    8 1  
     8    1    9 1  
     9    1   10 1  
    10    1   11 1  
    11    2   12 1  
    12    2   13 1  
    13    4   14 1  
    14    4   15 1  
    15    5   16 1  
    16    6   17 1  
    17    8   18 1  
    18    8   19 1  
    19    8   20 1  
@<TRIPOS>SUBSTRUCTURE
     1 LBA         1

