### 
### Created by X-TOOL on Mon Aug  2 16:15:24 2021
### 

@<TRIPOS>MOLECULE
6ny4_ligand
   45    47     1     0     0
SMALL
GAST_HUCK


@<TRIPOS>ATOM
      1 O2          1.3820  -11.9230   -4.5850 O.2       1 Z3A        -0.4025
      2 C8          0.2700  -11.8040   -4.0600 C.2       1 Z3A         0.1836
      3 N3         -0.2430  -10.6100   -3.7550 N.am      1 Z3A        -0.3054
      4 C2         -0.5670  -13.0170   -3.7910 C.2       1 Z3A         0.0833
      5 C1         -1.8400  -12.8230   -3.3250 C.2       1 Z3A         0.0356
      6 N1         -2.7830  -13.7370   -3.0810 N.2       1 Z3A        -0.1837
      7 C3         -0.1510  -14.3500   -4.0460 C.2       1 Z3A         0.1083
      8 N2          0.9890  -14.4510   -4.6400 N.pl3     1 Z3A        -0.2974
      9 C4          1.5660  -15.7150   -5.0970 C.3       1 Z3A         0.0899
     10 C6          2.3910  -15.4800   -6.3660 C.3       1 Z3A         0.0780
     11 C7          1.5530  -15.1880   -7.5950 C.3       1 Z3A        -0.0366
     12 O1          3.2460  -14.3640   -6.1290 O.3       1 Z3A        -0.3896
     13 C5          2.4550  -16.2960   -4.0120 C.3       1 Z3A         0.0701
     14 O           2.8370  -17.6200   -4.3570 O.3       1 Z3A        -0.3926
     15 C          -1.0640  -15.3960   -3.7110 C.2       1 Z3A         0.1306
     16 C11        -1.0280  -16.7900   -3.6270 C.2       1 Z3A        -0.0550
     17 C10        -2.3100  -17.2460   -3.1450 C.2       1 Z3A        -0.0309
     18 C9         -3.0790  -16.1280   -2.9520 C.2       1 Z3A         0.0612
     19 N          -2.3280  -15.0210   -3.2750 N.pl3     1 Z3A        -0.1695
     20 C12        -2.7360  -18.6570   -2.9180 C.ar      1 Z3A        -0.0381
     21 C17        -1.8690  -19.7190   -3.1930 C.ar      1 Z3A        -0.0609
     22 C16        -2.2890  -21.0350   -3.0240 C.ar      1 Z3A        -0.0655
     23 C15        -3.5770  -21.3080   -2.5800 C.ar      1 Z3A        -0.0655
     24 C14        -4.4360  -20.2640   -2.2850 C.ar      1 Z3A        -0.0655
     25 C13        -4.0230  -18.9480   -2.4480 C.ar      1 Z3A        -0.0609
     26 H1         -1.1462  -10.5475   -3.3304 H         1 Z3A         0.1795
     27 H2          0.2759   -9.7780   -3.9511 H         1 Z3A         0.1795
     28 H3         -2.1199  -11.7892   -3.1277 H         1 Z3A         0.0871
     29 H4          1.5268  -13.5878   -4.8028 H         1 Z3A         0.1874
     30 H5          0.7545  -16.4238   -5.3186 H         1 Z3A         0.0612
     31 H6          2.9972  -16.3767   -6.5619 H         1 Z3A         0.0615
     32 H7          2.2136  -15.0316   -8.4605 H         1 Z3A         0.0255
     33 H8          0.9532  -14.2821   -7.4231 H         1 Z3A         0.0255
     34 H9          0.8841  -16.0385   -7.7933 H         1 Z3A         0.0255
     35 H10         2.7184  -13.5870   -5.9862 H         1 Z3A         0.2099
     36 H11         1.9051  -16.3117   -3.0595 H         1 Z3A         0.0582
     37 H12         3.3552  -15.6728   -3.9055 H         1 Z3A         0.0582
     38 H13         3.3926  -17.9763   -3.6737 H         1 Z3A         0.2095
     39 H14        -0.1793  -17.4233   -3.8812 H         1 Z3A         0.0288
     40 H15        -4.1102  -16.1175   -2.6021 H         1 Z3A         0.0845
     41 H16        -0.8625  -19.5158   -3.5403 H         1 Z3A         0.0586
     42 H17        -1.6083  -21.8506   -3.2397 H         1 Z3A         0.0607
     43 H18        -3.9074  -22.3340   -2.4652 H         1 Z3A         0.0586
     44 H19        -5.4365  -20.4744   -1.9248 H         1 Z3A         0.0607
     45 H20        -4.7031  -18.1384   -2.2092 H         1 Z3A         0.0586
@<TRIPOS>BOND
     1    1    2 2  
     2    2    3 am 
     3    2    4 1  
     4    4    5 1  
     5    4    7 2  
     6    5    6 2  
     7    6   19 1  
     8    7    8 1  
     9    7   15 1  
    10    8    9 1  
    11    9   10 1  
    12    9   13 1  
    13   10   11 1  
    14   10   12 1  
    15   13   14 1  
    16   15   16 2  
    17   15   19 1  
    18   16   17 1  
    19   17   18 2  
    20   17   20 1  
    21   18   19 1  
    22   20   21 ar 
    23   20   25 ar 
    24   21   22 ar 
    25   22   23 ar 
    26   23   24 ar 
    27   24   25 ar 
    28    3   26 1  
    29    3   27 1  
    30    5   28 1  
    31    8   29 1  
    32    9   30 1  
    33   10   31 1  
    34   11   32 1  
    35   11   33 1  
    36   11   34 1  
    37   12   35 1  
    38   13   36 1  
    39   13   37 1  
    40   14   38 1  
    41   16   39 1  
    42   18   40 1  
    43   21   41 1  
    44   22   42 1  
    45   23   43 1  
    46   24   44 1  
    47   25   45 1  
@<TRIPOS>SUBSTRUCTURE
     1 Z3A         1

