### 
### Created by X-TOOL on Mon Aug  2 16:15:24 2021
### 

@<TRIPOS>MOLECULE
6nyh_ligand
   56    60     1     0     0
SMALL
GAST_HUCK


@<TRIPOS>ATOM
      1 C4        -15.8970   17.2000  -41.4030 C.ar      1 L8D         0.0117
      2 C6        -17.1070   15.6800  -42.6730 C.ar      1 L8D         0.1403
      3 C11       -17.1160   15.9470  -37.9630 C.3       1 L8D         0.1377
      4 C7        -18.1200   15.6240  -41.7080 C.ar      1 L8D        -0.0156
      5 C8        -18.0010   16.4030  -40.5600 C.ar      1 L8D        -0.0084
      6 C9        -19.0590   16.3910  -39.4780 C.3       1 L8D        -0.0135
      7 C10       -18.5710   15.5870  -38.2580 C.3       1 L8D        -0.0025
      8 C12       -16.8410   17.4310  -38.0530 C.2       1 L8D         0.2289
      9 N2        -16.7200   18.0010  -39.2610 N.am      1 L8D        -0.2235
     10 C3        -16.8660   17.2060  -40.4130 C.ar      1 L8D         0.0873
     11 C1        -16.4460   19.4470  -39.3580 C.3       1 L8D         0.0425
     12 N5        -16.0490   16.4440  -42.4780 N.ar      1 L8D        -0.3004
     13 O13       -16.7120   18.1320  -37.0470 O.2       1 L8D        -0.3836
     14 N14       -16.7820   15.5590  -36.6010 N.am      1 L8D        -0.2628
     15 C15       -16.4650   14.2870  -36.3100 C.2       1 L8D         0.2260
     16 O16       -16.4660   13.4150  -37.1640 O.2       1 L8D        -0.3821
     17 C17       -16.1080   13.9750  -34.9230 C.2       1 L8D         0.1637
     18 N18       -16.0430   14.8640  -33.9150 N.2       1 L8D        -0.2794
     19 C19       -15.6830   14.1870  -32.8570 C.2       1 L8D         0.1508
     20 N20       -15.5340   12.8970  -33.2300 N.pl3     1 L8D        -0.1544
     21 N21       -15.7990   12.7810  -34.4750 N.2       1 L8D        -0.1696
     22 C22       -15.1280   12.0550  -32.1070 C.3       1 L8D         0.1233
     23 C23       -15.4530   12.8890  -30.8400 C.3       1 L8D         0.0074
     24 C24       -15.3750   14.3470  -31.3790 C.3       1 L8D         0.0372
     25 C25       -15.8820   10.7470  -32.2140 C.ar      1 L8D        -0.0075
     26 C26       -17.1630   10.6210  -31.6930 C.ar      1 L8D        -0.0573
     27 C27       -17.8520    9.4200  -31.7950 C.ar      1 L8D        -0.0685
     28 C28       -17.2560    8.3440  -32.4360 C.ar      1 L8D        -0.0687
     29 C29       -15.9850    8.4760  -32.9810 C.ar      1 L8D        -0.0685
     30 C30       -15.2900    9.6760  -32.8630 C.ar      1 L8D        -0.0573
     31 O31       -17.1930   14.9320  -43.8170 O.3       1 L8D        -0.3137
     32 C32       -16.0540   14.9460  -44.6810 C.3       1 L8D         0.0596
     33 H1        -15.0117   17.8165  -41.2966 H         1 L8D         0.0636
     34 H2        -16.4706   15.4132  -38.6761 H         1 L8D         0.0806
     35 H3        -18.9832   14.9844  -41.8523 H         1 L8D         0.0534
     36 H4        -19.9760   15.9293  -39.8729 H         1 L8D         0.0425
     37 H5        -19.2728   17.4247  -39.1687 H         1 L8D         0.0425
     38 H6        -19.1938   15.8308  -37.3847 H         1 L8D         0.0334
     39 H7        -18.6466   14.5110  -38.4734 H         1 L8D         0.0334
     40 H8        -16.3691   19.8742  -38.3473 H         1 L8D         0.0545
     41 H9        -17.2648   19.9396  -39.9029 H         1 L8D         0.0545
     42 H10       -15.4998   19.6056  -39.8961 H         1 L8D         0.0545
     43 H11       -16.7886   16.2463  -35.8746 H         1 L8D         0.1878
     44 H12       -14.0482   11.8482  -32.1423 H         1 L8D         0.0843
     45 H13       -14.7102   12.7164  -30.0472 H         1 L8D         0.0349
     46 H14       -16.4581   12.6583  -30.4573 H         1 L8D         0.0349
     47 H15       -16.1206   14.9895  -30.8879 H         1 L8D         0.0528
     48 H16       -14.3707   14.7699  -31.2288 H         1 L8D         0.0528
     49 H17       -17.6291   11.4678  -31.2023 H         1 L8D         0.0558
     50 H18       -18.8476    9.3240  -31.3771 H         1 L8D         0.0599
     51 H19       -17.7824    7.3994  -32.5117 H         1 L8D         0.0559
     52 H20       -15.5320    7.6397  -33.5011 H         1 L8D         0.0599
     53 H21       -14.2924    9.7718  -33.2761 H         1 L8D         0.0558
     54 H22       -16.2505   14.3104  -45.5570 H         1 L8D         0.0577
     55 H23       -15.1775   14.5619  -44.1386 H         1 L8D         0.0577
     56 H24       -15.8577   15.9764  -45.0123 H         1 L8D         0.0577
@<TRIPOS>BOND
     1   10    1 ar 
     2    1   12 ar 
     3    4    2 ar 
     4    2   12 ar 
     5    2   31 1  
     6    7    3 1  
     7    3    8 1  
     8    3   14 1  
     9    5    4 ar 
    10    6    5 1  
    11    5   10 ar 
    12    6    7 1  
    13    8    9 am 
    14    8   13 2  
    15    9   10 1  
    16    9   11 1  
    17   14   15 am 
    18   15   16 2  
    19   15   17 1  
    20   17   18 1  
    21   17   21 2  
    22   18   19 2  
    23   19   20 1  
    24   19   24 1  
    25   20   21 1  
    26   20   22 1  
    27   22   23 1  
    28   22   25 1  
    29   23   24 1  
    30   25   26 ar 
    31   25   30 ar 
    32   26   27 ar 
    33   27   28 ar 
    34   28   29 ar 
    35   29   30 ar 
    36   31   32 1  
    37    1   33 1  
    38    3   34 1  
    39    4   35 1  
    40    6   36 1  
    41    6   37 1  
    42    7   38 1  
    43    7   39 1  
    44   11   40 1  
    45   11   41 1  
    46   11   42 1  
    47   14   43 1  
    48   22   44 1  
    49   23   45 1  
    50   23   46 1  
    51   24   47 1  
    52   24   48 1  
    53   26   49 1  
    54   27   50 1  
    55   28   51 1  
    56   29   52 1  
    57   30   53 1  
    58   32   54 1  
    59   32   55 1  
    60   32   56 1  
@<TRIPOS>SUBSTRUCTURE
     1 L8D         1

