### 
### Created by X-TOOL on Mon Aug  2 16:15:25 2021
### 

@<TRIPOS>MOLECULE
6nze_ligand
   45    47     1     0     0
SMALL
GAST_HUCK


@<TRIPOS>ATOM
      1 C13         8.6060   -2.8960   32.1090 C.ar      1 L8Y        -0.0119
      2 C18        15.3120   -3.7480   27.4110 C.ar      1 L8Y         0.0722
      3 C17        15.0310   -4.8090   26.5420 C.ar      1 L8Y        -0.0515
      4 C16        14.1940   -5.8450   26.9370 C.ar      1 L8Y        -0.0678
      5 C15        13.5990   -5.8190   28.1740 C.ar      1 L8Y        -0.0672
      6 C19        16.4470   -2.8320   27.0750 C.2       1 L8Y         0.1957
      7 C11         8.2820   -4.9470   30.9750 C.ar      1 L8Y         0.1470
      8 C12         7.7640   -3.9290   31.7380 C.ar      1 L8Y        -0.0182
      9 C1         14.6630   -0.7810   31.1000 C.ar      1 L8Y         0.0860
     10 C2         13.7890   -0.0860   31.9340 C.ar      1 L8Y         0.0068
     11 N1         12.5290   -0.4560   32.1870 N.ar      1 L8Y        -0.2902
     12 C3         12.0710   -1.5490   31.5870 C.ar      1 L8Y         0.1247
     13 C4         12.8540   -2.3180   30.7130 C.ar      1 L8Y         0.0140
     14 C5         14.1780   -1.9460   30.4590 C.ar      1 L8Y         0.0889
     15 N2         15.0140   -2.7000   29.6000 N.pl3     1 L8Y        -0.2617
     16 N3         10.7570   -1.8530   31.9340 N.pl3     1 L8Y        -0.2485
     17 C6         16.0220   -0.2360   30.7890 C.2       1 L8Y         0.1973
     18 N4         16.5510    0.6360   31.6480 N.am      1 L8Y        -0.2918
     19 O1         16.5980   -0.5740   29.7640 O.2       1 L8Y        -0.3934
     20 C7         17.7540    1.3790   31.3360 C.3       1 L8Y         0.0186
     21 C8         14.6920   -3.7160   28.6780 C.ar      1 L8Y         0.0832
     22 C9          9.9260   -2.8940   31.6240 C.ar      1 L8Y         0.1317
     23 N5         10.4200   -3.8790   30.8700 N.ar      1 L8Y        -0.2825
     24 C10         9.6180   -4.9090   30.5760 C.ar      1 L8Y         0.0313
     25 F1          7.4800   -6.0020   30.6630 F         1 L8Y        -0.1841
     26 C14        13.8490   -4.7700   29.0520 C.ar      1 L8Y        -0.0325
     27 N6         16.3550   -2.1060   25.9590 N.am      1 L8Y        -0.3021
     28 O2         17.4300   -2.7650   27.8310 O.2       1 L8Y        -0.3916
     29 H1          8.2553   -2.1039   32.7606 H         1 L8Y         0.0620
     30 H2         15.4708   -4.8223   25.5513 H         1 L8Y         0.0638
     31 H3         14.0101   -6.6766   26.2664 H         1 L8Y         0.0531
     32 H4         12.9308   -6.6204   28.4678 H         1 L8Y         0.0622
     33 H5          6.7233   -3.9349   32.0413 H         1 L8Y         0.0693
     34 H6         14.1556    0.8162   32.4102 H         1 L8Y         0.0807
     35 H7         12.4345   -3.1967   30.2366 H         1 L8Y         0.0534
     36 H8         16.0161   -2.4693   29.6583 H         1 L8Y         0.2159
     37 H9         10.3225   -1.1507   32.5495 H         1 L8Y         0.2163
     38 H10        16.1050    0.7807   32.5313 H         1 L8Y         0.1835
     39 H11        18.0091    2.0353   32.1811 H         1 L8Y         0.0483
     40 H12        17.5854    1.9887   30.4361 H         1 L8Y         0.0483
     41 H13        18.5814    0.6774   31.1539 H         1 L8Y         0.0483
     42 H14        10.0197   -5.7411   30.0092 H         1 L8Y         0.0772
     43 H15        13.3880   -4.7681   30.0331 H         1 L8Y         0.0547
     44 H16        17.0955   -1.4839   25.7048 H         1 L8Y         0.1803
     45 H17        15.5456   -2.1841   25.3770 H         1 L8Y         0.1803
@<TRIPOS>BOND
     1    1    8 ar 
     2   22    1 ar 
     3    2    3 ar 
     4    2    6 1  
     5   21    2 ar 
     6    3    4 ar 
     7    4    5 ar 
     8    5   26 ar 
     9    6   27 am 
    10    6   28 2  
    11    8    7 ar 
    12    7   24 ar 
    13    7   25 1  
    14   10    9 ar 
    15   14    9 ar 
    16    9   17 1  
    17   11   10 ar 
    18   12   11 ar 
    19   12   13 ar 
    20   16   12 1  
    21   13   14 ar 
    22   14   15 1  
    23   15   21 1  
    24   16   22 1  
    25   17   18 am 
    26   17   19 2  
    27   18   20 1  
    28   21   26 ar 
    29   22   23 ar 
    30   23   24 ar 
    31    1   29 1  
    32    3   30 1  
    33    4   31 1  
    34    5   32 1  
    35    8   33 1  
    36   10   34 1  
    37   13   35 1  
    38   15   36 1  
    39   16   37 1  
    40   18   38 1  
    41   20   39 1  
    42   20   40 1  
    43   20   41 1  
    44   24   42 1  
    45   26   43 1  
    46   27   44 1  
    47   27   45 1  
@<TRIPOS>SUBSTRUCTURE
     1 L8Y         1

