### 
### Created by X-TOOL on Mon Aug  2 16:15:25 2021
### 

@<TRIPOS>MOLECULE
6nzf_ligand
   47    49     1     0     0
SMALL
GAST_HUCK


@<TRIPOS>ATOM
      1 C13         8.5170   -3.0430   32.1710 C.ar      1 L91        -0.0119
      2 C18        15.2320   -4.2820   27.5590 C.ar      1 L91         0.1104
      3 C17        14.8900   -5.3630   26.7560 C.ar      1 L91        -0.0468
      4 C16        14.0240   -6.3270   27.2380 C.ar      1 L91        -0.0718
      5 C15        13.4850   -6.2120   28.5040 C.ar      1 L91        -0.0716
      6 C19        16.0950   -1.7120   26.7710 C.3       1 L91         0.0580
      7 C11         8.1710   -5.0910   31.0550 C.ar      1 L91         0.1470
      8 C12         7.6670   -4.0750   31.8190 C.ar      1 L91        -0.0182
      9 C1         14.5850   -1.0230   31.1200 C.ar      1 L91         0.0856
     10 C2         13.7260   -0.3200   31.9610 C.ar      1 L91         0.0066
     11 N1         12.4780   -0.6940   32.2500 N.ar      1 L91        -0.2904
     12 C3         12.0020   -1.7780   31.6390 C.ar      1 L91         0.1245
     13 C4         12.7600   -2.5350   30.7430 C.ar      1 L91         0.0136
     14 C5         14.0870   -2.1920   30.4950 C.ar      1 L91         0.0874
     15 C6         15.9530   -0.5010   30.8050 C.2       1 L91         0.1972
     16 N2         16.4710    0.4280   31.6070 N.am      1 L91        -0.2918
     17 O1         16.5640   -0.9310   29.8400 O.2       1 L91        -0.3935
     18 C7         17.6110    1.2320   31.2120 C.3       1 L91         0.0186
     19 N3         14.9190   -2.9630   29.6040 N.pl3     1 L91        -0.2645
     20 C8         14.6340   -4.1110   28.8260 C.ar      1 L91         0.0870
     21 N4         10.6960   -2.0400   31.9930 N.pl3     1 L91        -0.2485
     22 C9          9.8440   -3.0770   31.7020 C.ar      1 L91         0.1317
     23 N5         10.3230   -4.0700   30.9420 N.ar      1 L91        -0.2825
     24 C10         9.4940   -5.0590   30.6080 C.ar      1 L91         0.0313
     25 F1          7.4050   -6.1860   30.8410 F         1 L91        -0.1841
     26 C14        13.7930   -5.1200   29.3020 C.ar      1 L91        -0.0369
     27 S1         16.6600   -3.3460   27.0550 S.o2      1 L91        -0.0083
     28 O2         17.5700   -3.3270   28.1630 O.2       1 L91        -0.1713
     29 O3         17.1260   -3.8820   25.8090 O.2       1 L91        -0.1713
     30 H1          8.1697   -2.2265   32.7937 H         1 L91         0.0620
     31 H2         15.3002   -5.4502   25.7564 H         1 L91         0.0606
     32 H3         13.7666   -7.1783   26.6182 H         1 L91         0.0518
     33 H4         12.8169   -6.9800   28.8767 H         1 L91         0.0587
     34 H5         16.9393   -1.0819   26.4545 H         1 L91         0.0466
     35 H6         15.6627   -1.3072   27.6979 H         1 L91         0.0466
     36 H7         15.3284   -1.7210   25.9822 H         1 L91         0.0466
     37 H8          6.6314   -4.0787   32.1392 H         1 L91         0.0693
     38 H9         14.0965    0.5936   32.4118 H         1 L91         0.0806
     39 H10        12.3166   -3.3877   30.2416 H         1 L91         0.0532
     40 H11        16.0617    0.5751   32.5075 H         1 L91         0.1835
     41 H12        17.8667    1.9292   32.0235 H         1 L91         0.0483
     42 H13        17.3614    1.8013   30.3045 H         1 L91         0.0483
     43 H14        18.4698    0.5755   31.0085 H         1 L91         0.0483
     44 H15        15.8863   -2.6195   29.5192 H         1 L91         0.2136
     45 H16        10.2767   -1.3159   32.5937 H         1 L91         0.2163
     46 H17         9.8560   -5.8594   29.9729 H         1 L91         0.0772
     47 H18        13.3786   -5.0491   30.3012 H         1 L91         0.0534
@<TRIPOS>BOND
     1    1    8 ar 
     2   22    1 ar 
     3    2    3 ar 
     4   20    2 ar 
     5    2   27 1  
     6    3    4 ar 
     7    5    4 ar 
     8   26    5 ar 
     9   27    6 1  
    10    8    7 ar 
    11    7   24 ar 
    12    7   25 1  
    13   10    9 ar 
    14   14    9 ar 
    15    9   15 1  
    16   11   10 ar 
    17   12   11 ar 
    18   12   13 ar 
    19   21   12 1  
    20   13   14 ar 
    21   14   19 1  
    22   15   16 am 
    23   15   17 2  
    24   16   18 1  
    25   19   20 1  
    26   20   26 ar 
    27   21   22 1  
    28   22   23 ar 
    29   23   24 ar 
    30   27   28 2  
    31   27   29 2  
    32    1   30 1  
    33    3   31 1  
    34    4   32 1  
    35    5   33 1  
    36    6   34 1  
    37    6   35 1  
    38    6   36 1  
    39    8   37 1  
    40   10   38 1  
    41   13   39 1  
    42   16   40 1  
    43   18   41 1  
    44   18   42 1  
    45   18   43 1  
    46   19   44 1  
    47   21   45 1  
    48   24   46 1  
    49   26   47 1  
@<TRIPOS>SUBSTRUCTURE
     1 L91         1

