### 
### Created by X-TOOL on Mon Aug  2 16:11:34 2021
### 

@<TRIPOS>MOLECULE
6nzg_ligand
   26    26     1     0     0
SMALL
GAST_HUCK


@<TRIPOS>ATOM
      1 C08        14.6120  -29.3530  -29.9230 C.3       1 L9D         0.0207
      2 C09        15.1940  -29.0730  -31.3190 C.3       1 L9D        -0.0050
      3 C11        14.1360  -28.4420  -32.2530 C.3       1 L9D         0.0828
      4 C12        13.5300  -27.1580  -31.6400 C.3       1 L9D         0.1028
      5 C14        12.9280  -27.4530  -30.2720 C.3       1 L9D         0.1090
      6 C16        14.0340  -28.0240  -29.3770 C.3       1 L9D         0.0888
      7 C18        14.7560  -28.2100  -33.6480 C.2       1 L9D         0.0458
      8 N10        16.3600  -28.2010  -31.2170 N.4       1 L9D         0.2223
      9 O13        12.5590  -26.5740  -32.4680 O.3       1 L9D        -0.3869
     10 O15        12.4300  -26.2590  -29.7390 O.3       1 L9D        -0.3865
     11 O17        13.6280  -28.1100  -28.0300 O.3       1 L9D        -0.3889
     12 O19        15.8810  -27.6300  -33.7430 O.co2     1 L9D        -0.5684
     13 O20        14.1600  -28.6040  -34.6960 O.co2     1 L9D        -0.5684
     14 H1         15.4042  -29.7196  -29.2537 H         1 L9D         0.0347
     15 H2         13.8142  -30.1069  -29.9943 H         1 L9D         0.0347
     16 H3         15.5128  -30.0304  -31.7569 H         1 L9D         0.0873
     17 H4         13.3150  -29.1647  -32.3702 H         1 L9D         0.0548
     18 H5         14.3452  -26.4311  -31.5097 H         1 L9D         0.0643
     19 H6         12.1121  -28.1846  -30.3666 H         1 L9D         0.0646
     20 H7         14.8598  -27.2979  -29.4037 H         1 L9D         0.0622
     21 H8         17.0422  -28.6223  -30.6062 H         1 L9D         0.1998
     22 H9         16.0800  -27.3080  -30.8427 H         1 L9D         0.1998
     23 H10        16.7631  -28.0705  -32.1316 H         1 L9D         0.1998
     24 H11        12.9386  -26.3919  -33.3195 H         1 L9D         0.2101
     25 H12        11.7470  -25.9209  -30.3062 H         1 L9D         0.2100
     26 H13        12.8690  -28.6776  -27.9648 H         1 L9D         0.2099
@<TRIPOS>BOND
     1    1    2 1  
     2    1    6 1  
     3    2    3 1  
     4    2    8 1  
     5    3    4 1  
     6    3    7 1  
     7    4    5 1  
     8    4    9 1  
     9    5    6 1  
    10    5   10 1  
    11    6   11 1  
    12    7   12 ar 
    13    7   13 ar 
    14    1   14 1  
    15    1   15 1  
    16    2   16 1  
    17    3   17 1  
    18    4   18 1  
    19    5   19 1  
    20    6   20 1  
    21    8   21 1  
    22    8   22 1  
    23    8   23 1  
    24    9   24 1  
    25   10   25 1  
    26   11   26 1  
@<TRIPOS>SUBSTRUCTURE
     1 L9D         1

