### 
### Created by X-TOOL on Mon Aug  2 16:15:25 2021
### 

@<TRIPOS>MOLECULE
6nzh_ligand
   47    49     1     0     0
SMALL
GAST_HUCK


@<TRIPOS>ATOM
      1 C13        15.2690   -4.3980   27.3380 C.ar      1 L9A         0.1104
      2 C18        15.8130   -1.7470   26.5520 C.3       1 L9A         0.0580
      3 C17         7.7060   -4.6810   32.1810 C.3       1 L9A        -0.0303
      4 C16         7.2220   -3.7990   31.1000 C.3       1 L9A        -0.0303
      5 C15         8.3660   -3.3470   31.9690 C.3       1 L9A         0.0559
      6 C11        14.1220   -6.4660   26.9440 C.ar      1 L9A        -0.0718
      7 C12        15.0600   -5.5260   26.5540 C.ar      1 L9A        -0.0468
      8 C1         14.3770   -1.1490   30.8360 C.ar      1 L9A         0.0821
      9 C2         13.5300   -0.5440   31.7610 C.ar      1 L9A         0.0027
     10 N1         12.2780   -0.9290   31.9930 N.ar      1 L9A        -0.2939
     11 C3         11.7900   -1.9310   31.2640 C.ar      1 L9A         0.1299
     12 C4         12.5340   -2.5910   30.2840 C.ar      1 L9A         0.0110
     13 C5         13.8760   -2.2490   30.1000 C.ar      1 L9A         0.0834
     14 C6         15.7180   -0.5580   30.5200 C.2       1 L9A         0.1949
     15 N2         16.2920    0.2180   31.4380 N.am      1 L9A        -0.2923
     16 C7         17.3140    1.1890   31.0910 C.3       1 L9A         0.0186
     17 O1         16.2480   -0.7970   29.4440 O.2       1 L9A        -0.3949
     18 N3         14.7470   -3.0280   29.2910 N.pl3     1 L9A        -0.2653
     19 N4         10.5070   -2.2830   31.7000 N.am      1 L9A        -0.2186
     20 C8         14.5290   -4.1930   28.5210 C.ar      1 L9A         0.0868
     21 C9         13.6220   -5.1840   28.9140 C.ar      1 L9A        -0.0369
     22 C10        13.4110   -6.2980   28.1140 C.ar      1 L9A        -0.0716
     23 C14         9.7530   -3.3470   31.3470 C.2       1 L9A         0.2119
     24 O2         10.1340   -4.2440   30.5850 O.2       1 L9A        -0.3819
     25 S1         16.5810   -3.2870   26.8690 S.o2      1 L9A        -0.0083
     26 O3         17.4490   -3.1350   28.0020 O.2       1 L9A        -0.1713
     27 O4         17.1500   -3.7640   25.6430 O.2       1 L9A        -0.1713
     28 H1         16.5751   -1.0114   26.2552 H         1 L9A         0.0466
     29 H2         15.3014   -1.3983   27.4612 H         1 L9A         0.0466
     30 H3         15.0798   -1.8631   25.7403 H         1 L9A         0.0466
     31 H4          8.2473   -5.6058   31.9327 H         1 L9A         0.0294
     32 H5          7.0829   -4.8487   33.0718 H         1 L9A         0.0294
     33 H6          6.2401   -3.3112   31.1883 H         1 L9A         0.0294
     34 H7          7.4045   -4.0683   30.0492 H         1 L9A         0.0294
     35 H8          8.2529   -2.5256   32.6918 H         1 L9A         0.0545
     36 H9         13.9451   -7.3392   26.3265 H         1 L9A         0.0518
     37 H10        15.6284   -5.6690   25.6421 H         1 L9A         0.0605
     38 H11        13.9158    0.2950   32.3287 H         1 L9A         0.0798
     39 H12        12.0755   -3.3600   29.6729 H         1 L9A         0.0498
     40 H13        16.0109    0.1292   32.3936 H         1 L9A         0.1834
     41 H14        17.6442    1.7142   31.9993 H         1 L9A         0.0482
     42 H15        16.9012    1.9164   30.3765 H         1 L9A         0.0482
     43 H16        18.1709    0.6722   30.6344 H         1 L9A         0.0482
     44 H17        15.7157   -2.6793   29.2602 H         1 L9A         0.2134
     45 H18        10.0915   -1.6614   32.3640 H         1 L9A         0.2324
     46 H19        13.0817   -5.0807   29.8480 H         1 L9A         0.0534
     47 H20        12.6812   -7.0425   28.4110 H         1 L9A         0.0587
@<TRIPOS>BOND
     1    1    7 ar 
     2   20    1 ar 
     3    1   25 1  
     4   25    2 1  
     5    4    3 1  
     6    5    3 1  
     7    5    4 1  
     8   23    5 1  
     9    7    6 ar 
    10    6   22 ar 
    11    9    8 ar 
    12   13    8 ar 
    13    8   14 1  
    14   10    9 ar 
    15   11   10 ar 
    16   11   12 ar 
    17   19   11 1  
    18   12   13 ar 
    19   13   18 1  
    20   14   15 am 
    21   14   17 2  
    22   15   16 1  
    23   18   20 1  
    24   19   23 am 
    25   20   21 ar 
    26   21   22 ar 
    27   23   24 2  
    28   25   26 2  
    29   25   27 2  
    30    2   28 1  
    31    2   29 1  
    32    2   30 1  
    33    3   31 1  
    34    3   32 1  
    35    4   33 1  
    36    4   34 1  
    37    5   35 1  
    38    6   36 1  
    39    7   37 1  
    40    9   38 1  
    41   12   39 1  
    42   15   40 1  
    43   16   41 1  
    44   16   42 1  
    45   16   43 1  
    46   18   44 1  
    47   19   45 1  
    48   21   46 1  
    49   22   47 1  
@<TRIPOS>SUBSTRUCTURE
     1 L9A         1

