### 
### Created by X-TOOL on Mon Aug  2 16:15:27 2021
### 

@<TRIPOS>MOLECULE
6nzm_ligand
   74    79     1     0     0
SMALL
GAST_HUCK


@<TRIPOS>ATOM
      1 C3         -0.6650  -22.3790  -17.5140 C.3       1 L9S        -0.0087
      2 N4        -11.3350  -20.9520  -14.5210 N.pl3     1 L9S        -0.3150
      3 C5         -2.9750  -22.0030  -17.8620 C.3       1 L9S         0.0307
      4 C7         -4.4410  -23.9660  -18.6430 C.ar      1 L9S        -0.0704
      5 C14       -13.5290  -22.0160  -18.1130 C.ar      1 L9S        -0.0552
      6 C15       -14.1070  -21.9190  -16.8520 C.ar      1 L9S        -0.0907
      7 C13       -12.1800  -21.7770  -18.0980 C.ar      1 L9S         0.1404
      8 C12       -11.4060  -21.5010  -16.9590 C.ar      1 L9S         0.1199
      9 C11        -9.1590  -22.2160  -17.5880 C.2       1 L9S         0.3126
     10 C8         -5.6890  -24.5330  -18.8520 C.ar      1 L9S        -0.0819
     11 C10        -6.7310  -22.5660  -18.0220 C.ar      1 L9S         0.0602
     12 O1         -0.9470  -25.6370  -16.2550 O.3       1 L9S        -0.3898
     13 C1         -2.2640  -25.1620  -16.4200 C.3       1 L9S         0.0841
     14 C2         -2.2660  -23.6500  -16.2910 C.3       1 L9S        -0.0064
     15 N1         -1.9830  -23.0140  -17.5540 N.4       1 L9S         0.2536
     16 C4         -0.2900  -21.9270  -18.9060 C.3       1 L9S         0.0734
     17 C6         -4.3060  -22.6880  -18.1140 C.ar      1 L9S        -0.0075
     18 C9         -6.8440  -23.8360  -18.5630 C.ar      1 L9S        -0.0484
     19 N2         -7.8540  -21.7660  -17.6970 N.am      1 L9S        -0.2166
     20 N3        -10.0070  -21.2360  -17.1280 N.am      1 L9S        -0.2185
     21 F1        -11.5970  -21.8840  -19.2830 F         1 L9S        -0.1984
     22 C16       -13.3680  -21.5800  -15.7120 C.ar      1 L9S        -0.0609
     23 C17       -12.0160  -21.3480  -15.7290 C.ar      1 L9S         0.0617
     24 C18       -12.1610  -21.0630  -13.3060 C.3       1 L9S         0.0240
     25 C19       -11.1980  -20.8530  -12.1790 C.3       1 L9S        -0.0320
     26 C20        -9.9220  -21.4740  -12.7920 C.3       1 L9S        -0.0320
     27 C21       -10.1170  -21.6690  -14.2900 C.3       1 L9S         0.0240
     28 O2         -9.5570  -23.3280  -17.9390 O.2       1 L9S        -0.3821
     29 C22        -5.4850  -22.0080  -17.8240 C.ar      1 L9S        -0.0355
     30 C23        -2.7210  -21.5020  -19.2340 C.3       1 L9S         0.0855
     31 N5         -1.3680  -21.0080  -19.2930 N.pl3     1 L9S        -0.2753
     32 C24        -1.0020  -19.8380  -19.9320 C.ar      1 L9S         0.1217
     33 N6          0.3140  -19.7160  -20.2910 N.ar      1 L9S        -0.2730
     34 C25         0.6690  -18.6050  -20.8840 C.ar      1 L9S         0.0500
     35 N7         -0.0950  -17.5710  -21.2670 N.ar      1 L9S        -0.2772
     36 C26        -1.3470  -17.7160  -20.8720 C.ar      1 L9S         0.1355
     37 C27        -1.8970  -18.8170  -20.2420 C.ar      1 L9S         0.0435
     38 C28        -3.2950  -18.5130  -20.0410 C.2       1 L9S        -0.0545
     39 C29        -3.5510  -17.2650  -20.6330 C.2       1 L9S         0.0249
     40 N8         -2.3390  -16.7920  -21.0940 N.pl3     1 L9S        -0.2665
     41 H1          0.0803  -23.1005  -17.1481 H         1 L9S         0.0835
     42 H2         -0.6954  -21.5098  -16.8405 H         1 L9S         0.0835
     43 H3         -3.0143  -21.2149  -17.0956 H         1 L9S         0.1035
     44 H4         -3.5519  -24.5315  -18.8976 H         1 L9S         0.0431
     45 H5        -14.0861  -22.2551  -19.0116 H         1 L9S         0.0455
     46 H6        -15.1684  -22.1129  -16.7477 H         1 L9S         0.0445
     47 H7         -5.7582  -25.5395  -19.2486 H         1 L9S         0.0560
     48 H8         -0.9406  -26.5836  -16.3350 H         1 L9S         0.2096
     49 H9         -2.9127  -25.5986  -15.6464 H         1 L9S         0.0610
     50 H10        -2.6366  -25.4473  -17.4148 H         1 L9S         0.0610
     51 H11        -1.4994  -23.3520  -15.5606 H         1 L9S         0.0837
     52 H12        -3.2552  -23.3221  -15.9389 H         1 L9S         0.0837
     53 H13        -1.9919  -23.7147  -18.2785 H         1 L9S         0.2053
     54 H14        -0.2429  -22.7838  -19.5942 H         1 L9S         0.0582
     55 H15         0.6801  -21.4084  -18.8990 H         1 L9S         0.0582
     56 H16        -7.8176  -24.2723  -18.7549 H         1 L9S         0.0446
     57 H17        -7.6903  -20.7933  -17.5322 H         1 L9S         0.2259
     58 H18        -9.6446  -20.3300  -16.9093 H         1 L9S         0.2209
     59 H19       -13.8916  -21.4965  -14.7665 H         1 L9S         0.0436
     60 H20       -12.6252  -22.0581  -13.2407 H         1 L9S         0.0508
     61 H21       -12.9449  -20.2914  -13.2967 H         1 L9S         0.0508
     62 H22       -11.5133  -21.3845  -11.2690 H         1 L9S         0.0284
     63 H23       -11.0630  -19.7852  -11.9518 H         1 L9S         0.0284
     64 H24        -9.7249  -22.4473  -12.3189 H         1 L9S         0.0284
     65 H25        -9.0683  -20.8024  -12.6185 H         1 L9S         0.0284
     66 H26        -9.2829  -21.2370  -14.8623 H         1 L9S         0.0508
     67 H27       -10.2241  -22.7337  -14.5450 H         1 L9S         0.0508
     68 H28        -5.4219  -21.0012  -17.4273 H         1 L9S         0.0437
     69 H29        -3.4241  -20.6894  -19.4692 H         1 L9S         0.0608
     70 H30        -2.8501  -22.3197  -19.9583 H         1 L9S         0.0608
     71 H31         1.7277  -18.5064  -21.0952 H         1 L9S         0.0975
     72 H32        -4.0203  -19.1391  -19.5234 H         1 L9S         0.0311
     73 H33        -4.5167  -16.7680  -20.7126 H         1 L9S         0.0922
     74 H34        -2.1982  -15.8751  -21.5416 H         1 L9S         0.2318
@<TRIPOS>BOND
     1   15    1 1  
     2    1   16 1  
     3   23    2 1  
     4    2   24 1  
     5    2   27 1  
     6   15    3 1  
     7    3   17 1  
     8    3   30 1  
     9    4   10 ar 
    10   17    4 ar 
    11    5    6 ar 
    12    7    5 ar 
    13    6   22 ar 
    14    8    7 ar 
    15    7   21 1  
    16   20    8 1  
    17    8   23 ar 
    18   19    9 am 
    19    9   20 am 
    20    9   28 2  
    21   10   18 ar 
    22   18   11 ar 
    23   11   19 1  
    24   11   29 ar 
    25   13   12 1  
    26   14   13 1  
    27   14   15 1  
    28   16   31 1  
    29   17   29 ar 
    30   22   23 ar 
    31   24   25 1  
    32   25   26 1  
    33   26   27 1  
    34   30   31 1  
    35   31   32 1  
    36   32   33 ar 
    37   32   37 ar 
    38   33   34 ar 
    39   34   35 ar 
    40   35   36 ar 
    41   36   37 ar 
    42   36   40 1  
    43   37   38 1  
    44   38   39 2  
    45   39   40 1  
    46    1   41 1  
    47    1   42 1  
    48    3   43 1  
    49    4   44 1  
    50    5   45 1  
    51    6   46 1  
    52   10   47 1  
    53   12   48 1  
    54   13   49 1  
    55   13   50 1  
    56   14   51 1  
    57   14   52 1  
    58   15   53 1  
    59   16   54 1  
    60   16   55 1  
    61   18   56 1  
    62   19   57 1  
    63   20   58 1  
    64   22   59 1  
    65   24   60 1  
    66   24   61 1  
    67   25   62 1  
    68   25   63 1  
    69   26   64 1  
    70   26   65 1  
    71   27   66 1  
    72   27   67 1  
    73   29   68 1  
    74   30   69 1  
    75   30   70 1  
    76   34   71 1  
    77   38   72 1  
    78   39   73 1  
    79   40   74 1  
@<TRIPOS>SUBSTRUCTURE
     1 L9S         1

