### 
### Created by X-TOOL on Mon Aug  2 16:15:27 2021
### 

@<TRIPOS>MOLECULE
6nzp_ligand
   53    56     1     0     0
SMALL
GAST_HUCK


@<TRIPOS>ATOM
      1 C13         9.9890   -3.4950   31.3860 C.2       1 LB7         0.2175
      2 C18        17.1880   -7.1020   22.2740 C.3       1 LB7         0.0648
      3 C17        18.1050   -5.5580   24.0720 C.2       1 LB7         0.1273
      4 C16        16.1580   -2.2400   26.3750 C.3       1 LB7         0.0583
      5 C15        16.4630   -5.6880   25.3680 C.2       1 LB7         0.0960
      6 C19         7.4640   -3.6990   30.9060 C.3       1 LB7        -0.0301
      7 C20         7.7960   -4.7460   31.8810 C.3       1 LB7        -0.0301
      8 C11        15.6110   -5.5120   26.5610 C.ar      1 LB7         0.0245
      9 C12        15.6350   -4.3480   27.3380 C.ar      1 LB7         0.1291
     10 C1         14.5050   -1.1690   30.7810 C.ar      1 LB7         0.1834
     11 N1         13.7320   -0.5790   31.7160 N.ar      1 LB7        -0.2448
     12 N2         12.4900   -1.0320   31.9810 N.ar      1 LB7        -0.2939
     13 C2         12.0040   -2.0560   31.2970 C.ar      1 LB7         0.1205
     14 C3         12.7150   -2.6860   30.2720 C.ar      1 LB7         0.0285
     15 C4         14.0290   -2.2980   30.0390 C.ar      1 LB7         0.1339
     16 N3         10.7500   -2.4510   31.7810 N.am      1 LB7        -0.2127
     17 N4         14.9150   -3.0370   29.2150 N.pl3     1 LB7        -0.2561
     18 C5         15.8330   -0.5030   30.5220 C.2       1 LB7         0.2466
     19 N5         16.1750    0.4670   31.3700 N.am      1 LB7        -0.2836
     20 O1         16.5180   -0.8150   29.5520 O.2       1 LB7        -0.3677
     21 C6         17.3920    1.2400   31.2030 C.3       1 LB7         0.0197
     22 C7         14.7350   -4.1810   28.4040 C.ar      1 LB7         0.1006
     23 C8         13.8240   -5.1960   28.6960 C.ar      1 LB7        -0.0440
     24 C9         13.7970   -6.3410   27.9190 C.ar      1 LB7        -0.0804
     25 C10        14.6870   -6.5100   26.8740 C.ar      1 LB7        -0.0708
     26 O2         16.5850   -3.3700   27.1300 O.3       1 LB7        -0.3214
     27 C14         8.5640   -3.4590   31.8950 C.3       1 LB7         0.0572
     28 O3         10.3950   -4.4060   30.6630 O.2       1 LB7        -0.3787
     29 N6         16.0930   -6.4210   24.3290 N.2       1 LB7        -0.1894
     30 N7         17.1700   -6.3380   23.5120 N.pl3     1 LB7        -0.1827
     31 N8         17.7060   -5.1280   25.2480 N.2       1 LB7        -0.2827
     32 H1         18.1320   -6.9146   21.7412 H         1 LB7         0.0607
     33 H2         16.3425   -6.7946   21.6410 H         1 LB7         0.0607
     34 H3         17.1032   -8.1744   22.5036 H         1 LB7         0.0607
     35 H4         19.0632   -5.3142   23.6155 H         1 LB7         0.1369
     36 H5         16.9924   -1.5305   26.2732 H         1 LB7         0.0576
     37 H6         15.3203   -1.7490   26.8918 H         1 LB7         0.0576
     38 H7         15.8316   -2.5678   25.3770 H         1 LB7         0.0576
     39 H8          6.5166   -3.1473   30.9954 H         1 LB7         0.0294
     40 H9          7.7050   -3.8439   29.8426 H         1 LB7         0.0294
     41 H10         8.2849   -5.6725   31.5454 H         1 LB7         0.0294
     42 H11         7.0965   -4.9758   32.6982 H         1 LB7         0.0294
     43 H12        12.2516   -3.4606   29.6717 H         1 LB7         0.0566
     44 H13        10.3689   -1.8872   32.5137 H         1 LB7         0.2398
     45 H14        15.8769   -2.6688   29.2053 H         1 LB7         0.2185
     46 H15        15.5751    0.6681   32.1444 H         1 LB7         0.1850
     47 H16        17.4703    1.9801   32.0130 H         1 LB7         0.0484
     48 H17        17.3667    1.7589   30.2334 H         1 LB7         0.0484
     49 H18        18.2614    0.5669   31.2361 H         1 LB7         0.0484
     50 H19        13.1390   -5.0883   29.5292 H         1 LB7         0.0514
     51 H20        13.0689   -7.1153   28.1322 H         1 LB7         0.0501
     52 H21        14.6667   -7.4251   26.2933 H         1 LB7         0.0505
     53 H22         8.4534   -2.7304   32.7116 H         1 LB7         0.0546
@<TRIPOS>BOND
     1   16    1 am 
     2    1   27 1  
     3    1   28 2  
     4   30    2 1  
     5    3   30 1  
     6   31    3 2  
     7   26    4 1  
     8    8    5 1  
     9    5   29 2  
    10    5   31 1  
    11    7    6 1  
    12   27    6 1  
    13   27    7 1  
    14    9    8 ar 
    15    8   25 ar 
    16   22    9 ar 
    17    9   26 1  
    18   10   11 ar 
    19   15   10 ar 
    20   10   18 1  
    21   11   12 ar 
    22   13   12 ar 
    23   14   13 ar 
    24   13   16 1  
    25   15   14 ar 
    26   17   15 1  
    27   17   22 1  
    28   18   19 am 
    29   18   20 2  
    30   19   21 1  
    31   22   23 ar 
    32   23   24 ar 
    33   24   25 ar 
    34   29   30 1  
    35    2   32 1  
    36    2   33 1  
    37    2   34 1  
    38    3   35 1  
    39    4   36 1  
    40    4   37 1  
    41    4   38 1  
    42    6   39 1  
    43    6   40 1  
    44    7   41 1  
    45    7   42 1  
    46   14   43 1  
    47   16   44 1  
    48   17   45 1  
    49   19   46 1  
    50   21   47 1  
    51   21   48 1  
    52   21   49 1  
    53   23   50 1  
    54   24   51 1  
    55   25   52 1  
    56   27   53 1  
@<TRIPOS>SUBSTRUCTURE
     1 LB7         1

