### 
### Created by X-TOOL on Mon Aug  2 16:15:28 2021
### 

@<TRIPOS>MOLECULE
6nzq_ligand
   64    67     1     0     0
SMALL
GAST_HUCK


@<TRIPOS>ATOM
      1 C13         8.6630   -3.1720   32.0000 C.ar      1 LB4        -0.0117
      2 C18        15.8960   -0.3630   30.4100 C.2       1 LB4         0.1969
      3 C17         6.4240   -4.2990   31.9130 C.3       1 LB4        -0.0258
      4 C16         9.7390   -5.1040   30.5320 C.ar      1 LB4         0.0235
      5 C15         8.4200   -5.1660   30.8840 C.ar      1 LB4         0.1473
      6 C19        17.4340    1.1960   31.4350 C.3       1 LB4         0.0186
      7 C20        14.7970   -4.1010   28.6290 C.ar      1 LB4         0.0992
      8 C21        13.9650   -5.1460   28.9820 C.ar      1 LB4        -0.0422
      9 C22        13.8290   -6.2290   28.1610 C.ar      1 LB4        -0.0773
     10 C23        14.5660   -6.3340   27.0150 C.ar      1 LB4        -0.0623
     11 C24        15.4680   -5.3450   26.6670 C.ar      1 LB4         0.0696
     12 C11        14.1280   -2.1730   30.2430 C.ar      1 LB4         0.0851
     13 C12         9.9860   -3.1380   31.5930 C.ar      1 LB4         0.1229
     14 C27        16.3340   -5.6890   25.5100 C.2       1 LB4         0.1983
     15 C1         18.3880   -5.4090   23.2570 C.ar      1 LB4         0.0501
     16 C2         17.9910   -6.2460   22.2370 C.ar      1 LB4        -0.0304
     17 N1         18.6490   -4.1180   23.0610 N.ar      1 LB4        -0.2960
     18 C3         18.5890   -5.9060   24.6670 C.3       1 LB4         0.0790
     19 C4         17.8860   -5.7290   20.9710 C.ar      1 LB4        -0.0488
     20 C5         18.5370   -3.6490   21.8190 C.ar      1 LB4         0.0028
     21 N2         17.6140   -5.3530   25.5810 N.am      1 LB4        -0.2745
     22 C6         18.1690   -4.4130   20.7530 C.ar      1 LB4        -0.0410
     23 C7         14.6140   -1.0040   30.8500 C.ar      1 LB4         0.0849
     24 C8         13.7900   -0.3580   31.7540 C.ar      1 LB4         0.0062
     25 N3         12.5700   -0.7570   32.0890 N.ar      1 LB4        -0.2909
     26 C9         12.1010   -1.8150   31.5050 C.ar      1 LB4         0.1238
     27 C10        12.8220   -2.5290   30.5630 C.ar      1 LB4         0.0128
     28 N4         10.8230   -2.1030   31.8900 N.pl3     1 LB4        -0.2504
     29 C14         7.8840   -4.2410   31.5840 C.ar      1 LB4        -0.0025
     30 N5         10.5220   -4.0920   30.8830 N.ar      1 LB4        -0.2923
     31 F1          7.6420   -6.1930   30.5370 F         1 LB4        -0.1894
     32 N6         16.8130   -0.1050   31.3290 N.am      1 LB4        -0.2919
     33 O1         16.0430    0.0070   29.2650 O.2       1 LB4        -0.3937
     34 N7         14.9580   -2.9190   29.3800 N.pl3     1 LB4        -0.2682
     35 C25        15.5630   -4.2110   27.4670 C.ar      1 LB4         0.1365
     36 O2         16.4450   -3.2110   27.1870 O.3       1 LB4        -0.3196
     37 C26        15.9520   -2.1530   26.3950 C.3       1 LB4         0.0588
     38 O3         15.8870   -6.3140   24.5730 O.2       1 LB4        -0.3911
     39 H1          8.2494   -2.3879   32.6239 H         1 LB4         0.0551
     40 H2          6.1494   -3.4224   32.5181 H         1 LB4         0.0406
     41 H3          6.2122   -5.2172   32.4805 H         1 LB4         0.0406
     42 H4          5.8381   -4.3000   30.9820 H         1 LB4         0.0406
     43 H5         10.1611   -5.9113   29.9444 H         1 LB4         0.0748
     44 H6         18.1610    1.1891   32.2605 H         1 LB4         0.0482
     45 H7         16.6630    1.9554   31.6318 H         1 LB4         0.0482
     46 H8         17.9507    1.4335   30.4934 H         1 LB4         0.0482
     47 H9         13.4168   -5.1061   29.9163 H         1 LB4         0.0534
     48 H10        13.1285   -7.0142   28.4214 H         1 LB4         0.0506
     49 H11        14.4427   -7.1992   26.3737 H         1 LB4         0.0539
     50 H12        17.7669   -7.2888   22.4306 H         1 LB4         0.0652
     51 H13        19.5955   -5.6182   25.0048 H         1 LB4         0.0712
     52 H14        18.4996   -7.0023   24.6732 H         1 LB4         0.0712
     53 H15        17.5794   -6.3637   20.1474 H         1 LB4         0.0719
     54 H16        18.7508   -2.6003   21.6471 H         1 LB4         0.0803
     55 H17        17.9118   -4.7038   26.2809 H         1 LB4         0.1871
     56 H18        18.1029   -3.9865   19.7586 H         1 LB4         0.0652
     57 H19        14.1698    0.5420   32.2240 H         1 LB4         0.0805
     58 H20        12.3625   -3.3769   30.0682 H         1 LB4         0.0528
     59 H21        10.4125   -1.4050   32.5266 H         1 LB4         0.2161
     60 H22        17.0827   -0.8277   31.9654 H         1 LB4         0.1835
     61 H23        15.8955   -2.5057   29.2746 H         1 LB4         0.2108
     62 H24        16.7488   -1.4113   26.2369 H         1 LB4         0.0577
     63 H25        15.1035   -1.6760   26.9073 H         1 LB4         0.0577
     64 H26        15.6194   -2.5466   25.4232 H         1 LB4         0.0577
@<TRIPOS>BOND
     1   13    1 ar 
     2    1   29 ar 
     3   23    2 1  
     4    2   32 am 
     5    2   33 2  
     6   29    3 1  
     7    4    5 ar 
     8   30    4 ar 
     9   29    5 ar 
    10    5   31 1  
    11   32    6 1  
    12    7    8 ar 
    13   34    7 1  
    14    7   35 ar 
    15    8    9 ar 
    16    9   10 ar 
    17   11   10 ar 
    18   11   14 1  
    19   35   11 ar 
    20   12   23 ar 
    21   27   12 ar 
    22   12   34 1  
    23   28   13 1  
    24   13   30 ar 
    25   14   21 am 
    26   14   38 2  
    27   15   16 ar 
    28   15   17 ar 
    29   18   15 1  
    30   16   19 ar 
    31   17   20 ar 
    32   21   18 1  
    33   19   22 ar 
    34   20   22 ar 
    35   24   23 ar 
    36   25   24 ar 
    37   26   25 ar 
    38   26   27 ar 
    39   26   28 1  
    40   35   36 1  
    41   36   37 1  
    42    1   39 1  
    43    3   40 1  
    44    3   41 1  
    45    3   42 1  
    46    4   43 1  
    47    6   44 1  
    48    6   45 1  
    49    6   46 1  
    50    8   47 1  
    51    9   48 1  
    52   10   49 1  
    53   16   50 1  
    54   18   51 1  
    55   18   52 1  
    56   19   53 1  
    57   20   54 1  
    58   21   55 1  
    59   22   56 1  
    60   24   57 1  
    61   27   58 1  
    62   28   59 1  
    63   32   60 1  
    64   34   61 1  
    65   37   62 1  
    66   37   63 1  
    67   37   64 1  
@<TRIPOS>SUBSTRUCTURE
     1 LB4         1

