### 
### Created by X-TOOL on Mon Aug  2 16:15:28 2021
### 

@<TRIPOS>MOLECULE
6nzr_ligand
   46    48     1     0     0
SMALL
GAST_HUCK


@<TRIPOS>ATOM
      1 C13         9.5700   -3.1810   31.6590 C.ar      1 LAJ         0.1399
      2 C18        15.7910   -1.6810   26.9040 C.3       1 LAJ         0.0581
      3 C17         9.2720   -5.1350   30.4880 C.ar      1 LAJ        -0.0012
      4 C16         7.9400   -5.2140   30.8480 C.ar      1 LAJ        -0.0458
      5 C15         7.4260   -4.2280   31.6660 C.ar      1 LAJ        -0.0515
      6 C11        14.8680   -5.4100   26.9410 C.ar      1 LAJ        -0.0457
      7 C12        15.1270   -4.2900   27.7220 C.ar      1 LAJ         0.1124
      8 C1         14.2390   -1.0170   31.2710 C.ar      1 LAJ         0.1860
      9 N1         13.4750   -0.3940   32.1860 N.ar      1 LAJ        -0.2362
     10 N2         12.2180   -0.8020   32.4380 N.ar      1 LAJ        -0.2788
     11 C2         11.7020   -1.8060   31.7330 C.ar      1 LAJ         0.1188
     12 C3         12.4160   -2.4710   30.7340 C.ar      1 LAJ         0.0306
     13 C4         13.7480   -2.1310   30.5130 C.ar      1 LAJ         0.1374
     14 N3         10.3960   -2.1410   32.0490 N.pl3     1 LAJ        -0.2406
     15 N4         14.6290   -2.8750   29.6640 N.pl3     1 LAJ        -0.2510
     16 C5         15.5800   -0.3930   31.0200 C.2       1 LAJ         0.2468
     17 N5         15.9060    0.6320   31.8090 N.am      1 LAJ        -0.2836
     18 O1         16.2970   -0.7920   30.1070 O.2       1 LAJ        -0.3678
     19 C6         17.0880    1.4430   31.5730 C.3       1 LAJ         0.0197
     20 C7         14.3890   -4.0460   28.8980 C.ar      1 LAJ         0.0928
     21 C8         13.4300   -4.9900   29.2800 C.ar      1 LAJ        -0.0349
     22 C9         13.1660   -6.0910   28.4830 C.ar      1 LAJ        -0.0705
     23 C10        13.8810   -6.3020   27.3270 C.ar      1 LAJ        -0.0708
     24 C14         8.2400   -3.1970   32.1010 C.ar      1 LAJ        -0.0091
     25 N6         10.0870   -4.1440   30.8780 N.ar      1 LAJ        -0.2786
     26 S1         16.4870   -3.2620   27.2050 S.o2      1 LAJ        -0.0078
     27 O2         17.4000   -3.1520   28.3040 O.2       1 LAJ        -0.1712
     28 O3         16.9880   -3.7750   25.9680 O.2       1 LAJ        -0.1712
     29 H1         16.5811   -0.9886   26.5781 H         1 LAJ         0.0466
     30 H2         15.3292   -1.3018   27.8275 H         1 LAJ         0.0466
     31 H3         15.0261   -1.7608   26.1175 H         1 LAJ         0.0466
     32 H4          9.6798   -5.9160   29.8565 H         1 LAJ         0.0789
     33 H5          7.3159   -6.0281   30.4975 H         1 LAJ         0.0614
     34 H6          6.3853   -4.2614   31.9674 H         1 LAJ         0.0705
     35 H7         15.4356   -5.5847   26.0342 H         1 LAJ         0.0608
     36 H8         11.9397   -3.2415   30.1386 H         1 LAJ         0.0581
     37 H9          9.9499   -1.4849   32.7058 H         1 LAJ         0.2229
     38 H10        15.5869   -2.5022   29.5988 H         1 LAJ         0.2215
     39 H11        15.3178    0.8491   32.5880 H         1 LAJ         0.1850
     40 H12        17.1558    2.2251   32.3435 H         1 LAJ         0.0484
     41 H13        17.0190    1.9114   30.5801 H         1 LAJ         0.0484
     42 H14        17.9841    0.8066   31.6168 H         1 LAJ         0.0484
     43 H15        12.8880   -4.8582   30.2095 H         1 LAJ         0.0544
     44 H16        12.3907   -6.7913   28.7719 H         1 LAJ         0.0589
     45 H17        13.6709   -7.1714   26.7145 H         1 LAJ         0.0526
     46 H18         7.8611   -2.4263   32.7625 H         1 LAJ         0.0635
@<TRIPOS>BOND
     1   14    1 1  
     2    1   24 ar 
     3    1   25 ar 
     4   26    2 1  
     5    3    4 ar 
     6   25    3 ar 
     7    5    4 ar 
     8   24    5 ar 
     9    7    6 ar 
    10    6   23 ar 
    11   20    7 ar 
    12    7   26 1  
    13    8    9 ar 
    14   13    8 ar 
    15    8   16 1  
    16    9   10 ar 
    17   11   10 ar 
    18   12   11 ar 
    19   11   14 1  
    20   13   12 ar 
    21   15   13 1  
    22   15   20 1  
    23   16   17 am 
    24   16   18 2  
    25   17   19 1  
    26   20   21 ar 
    27   21   22 ar 
    28   22   23 ar 
    29   26   27 2  
    30   26   28 2  
    31    2   29 1  
    32    2   30 1  
    33    2   31 1  
    34    3   32 1  
    35    4   33 1  
    36    5   34 1  
    37    6   35 1  
    38   12   36 1  
    39   14   37 1  
    40   15   38 1  
    41   17   39 1  
    42   19   40 1  
    43   19   41 1  
    44   19   42 1  
    45   21   43 1  
    46   22   44 1  
    47   23   45 1  
    48   24   46 1  
@<TRIPOS>SUBSTRUCTURE
     1 LAJ         1

