### 
### Created by X-TOOL on Mon Aug  2 16:15:28 2021
### 

@<TRIPOS>MOLECULE
6nzt_ligand
  112   118     1     0     0
SMALL
GAST_HUCK


@<TRIPOS>ATOM
      1 C01        69.2920   71.2250   12.9640 C.3       1 L9P         0.1202
      2 C02        70.5550   70.3590   12.7940 C.3       1 L9P         0.0697
      3 C04        68.9500   69.2820   14.2740 C.3       1 L9P         0.1392
      4 C05        68.2220   70.1620   13.2700 C.3       1 L9P         0.0337
      5 C06        68.5320   67.7930   14.2810 C.2       1 L9P         0.2016
      6 C09        67.4840   66.0280   15.6990 C.3       1 L9P         0.1427
      7 C10        66.3340   65.3630   15.0570 C.2       1 L9P         0.2446
      8 C13        63.5940   66.4660   12.3080 C.3       1 L9P         0.1085
      9 C17        68.7000   65.1350   15.9530 C.3       1 L9P         0.0541
     10 C18        67.8450   65.5590   17.1020 C.3       1 L9P        -0.0098
     11 C19        62.1950   66.0900   12.0000 C.3       1 L9P        -0.0239
     12 C20        62.4630   67.2580   12.9000 C.3       1 L9P        -0.0239
     13 C22        68.6670   73.1930   14.2530 C.ar      1 L9P         0.2103
     14 C23        71.3270   68.4940   14.3370 C.2       1 L9P         0.2070
     15 C25        72.7720   68.6030   13.7890 C.3       1 L9P         0.1378
     16 C27        74.0440   69.8850   15.3430 C.2       1 L9P         0.3221
     17 C30        75.3510   71.0110   16.9440 C.3       1 L9P         0.0914
     18 C31        74.5280   71.6050   18.0650 C.3       1 L9P        -0.0077
     19 C32        74.4390   73.1000   18.2240 C.3       1 L9P        -0.0475
     20 C34        67.1020   74.6810   13.4640 C.ar      1 L9P         0.0685
     21 C35        67.1940   75.4190   14.6600 C.ar      1 L9P         0.0962
     22 C37        68.7650   73.9170   15.4200 C.ar      1 L9P         0.1459
     23 C38        66.2340   75.0970   12.4670 C.ar      1 L9P         0.0018
     24 C39        65.4520   76.2550   12.6570 C.ar      1 L9P         0.1144
     25 C40        65.5520   76.9740   13.8390 C.ar      1 L9P        -0.0057
     26 C41        66.4200   76.5690   14.8460 C.ar      1 L9P        -0.0188
     27 C42        69.6860   73.5180   16.5350 C.3       1 L9P         0.2482
     28 C43        71.1590   73.7730   16.2210 C.3       1 L9P        -0.0140
     29 C44        72.0560   73.4360   17.4200 C.3       1 L9P        -0.0556
     30 C45        73.5250   73.7000   17.1420 C.3       1 L9P        -0.0533
     31 C47        73.0760   67.4220   12.8330 C.3       1 L9P         0.0025
     32 C49        64.4310   76.0280   10.5080 C.3       1 L9P         0.0650
     33 C50        68.8170   63.6730   15.6670 C.3       1 L9P         0.2436
     34 C52        67.8060   69.3970   12.0000 C.3       1 L9P        -0.0459
     35 C53        67.0330   70.3050   11.0160 C.3       1 L9P        -0.0647
     36 C54        75.8280   70.8930   18.3610 C.3       1 L9P        -0.0165
     37 C55        72.9910   66.0770   13.5830 C.3       1 L9P        -0.0558
     38 C56        72.0800   67.3910   11.6500 C.3       1 L9P        -0.0558
     39 C57        64.7200   66.8750   11.3480 C.3       1 L9P        -0.0378
     40 C58        74.5010   67.5340   12.2480 C.3       1 L9P        -0.0558
     41 F46        69.0190   63.5350   14.3370 F         1 L9P        -0.2090
     42 F51        69.9370   63.1890   16.2710 F         1 L9P        -0.2090
     43 F59        69.4820   72.2090   16.7760 F         1 L9P        -0.2533
     44 F60        69.3580   74.2980   17.5910 F         1 L9P        -0.2533
     45 N03        70.3680   69.3280   13.8150 N.am      1 L9P        -0.2464
     46 N08        67.8980   67.3800   15.4320 N.am      1 L9P        -0.2735
     47 N11        65.6190   66.1460   14.1750 N.am      1 L9P        -0.1549
     48 N26        73.6950   68.6600   14.8880 N.am      1 L9P        -0.2407
     49 N33        67.8400   73.5620   13.2570 N.ar      1 L9P        -0.2453
     50 N36        68.0280   75.0340   15.6350 N.ar      1 L9P        -0.2374
     51 O07        68.7540   67.0070   13.3620 O.2       1 L9P        -0.3947
     52 O14        64.8940   64.2020   12.6860 O.2       1 L9P        -0.1501
     53 O15        63.3470   64.8810   14.4520 O.2       1 L9P        -0.1501
     54 O16        66.0380   64.2030   15.3250 O.2       1 L9P        -0.3404
     55 O21        69.4720   72.0750   14.1250 O.3       1 L9P        -0.2708
     56 O24        71.0590   67.6650   15.2130 O.2       1 L9P        -0.3942
     57 O28        73.6610   70.9560   14.8730 O.2       1 L9P        -0.3774
     58 O29        74.8860   69.7640   16.3930 O.3       1 L9P        -0.2602
     59 O48        64.5750   76.7390   11.7370 O.3       1 L9P        -0.3062
     60 S12        64.3670   65.3040   13.4880 S.o2      1 L9P         0.0671
     61 H1         69.0564   71.8174   12.0676 H         1 L9P         0.0698
     62 H2         71.4672   70.9443   12.9818 H         1 L9P         0.0555
     63 H3         70.6029   69.9182   11.7873 H         1 L9P         0.0555
     64 H4         68.8361   69.6961   15.2867 H         1 L9P         0.0806
     65 H5         67.3281   70.6167   13.7219 H         1 L9P         0.0379
     66 H6         69.6933   65.5858   15.8113 H         1 L9P         0.0367
     67 H7         67.2093   64.8208   17.6129 H         1 L9P         0.0281
     68 H8         68.2336   66.2793   17.8369 H         1 L9P         0.0281
     69 H9         61.7720   65.1634   12.4153 H         1 L9P         0.0288
     70 H10        61.7918   66.2569   10.9903 H         1 L9P         0.0288
     71 H11        62.2633   68.2817   12.5506 H         1 L9P         0.0288
     72 H12        62.2435   67.1883   13.9756 H         1 L9P         0.0288
     73 H13        72.8606   69.5376   13.2157 H         1 L9P         0.0805
     74 H14        75.8523   71.6411   16.1946 H         1 L9P         0.0650
     75 H15        73.5692   71.1467   18.3490 H         1 L9P         0.0330
     76 H16        75.4450   73.5351   18.1309 H         1 L9P         0.0269
     77 H17        74.0282   73.3352   19.2169 H         1 L9P         0.0269
     78 H18        66.1564   74.5340   11.5439 H         1 L9P         0.0552
     79 H19        64.9462   77.8620   13.9789 H         1 L9P         0.0665
     80 H20        66.4963   77.1381   15.7654 H         1 L9P         0.0753
     81 H21        71.2910   74.8341   15.9629 H         1 L9P         0.0220
     82 H22        71.4556   73.1480   15.3658 H         1 L9P         0.0220
     83 H23        71.9298   72.3714   17.6663 H         1 L9P         0.0259
     84 H24        71.7437   74.0503   18.2774 H         1 L9P         0.0259
     85 H25        73.7870   73.2552   16.1706 H         1 L9P         0.0265
     86 H26        73.6882   74.7871   17.1035 H         1 L9P         0.0265
     87 H27        63.6920   76.5389    9.8733 H         1 L9P         0.0589
     88 H28        64.0901   75.0029   10.7152 H         1 L9P         0.0589
     89 H29        65.3998   75.9943    9.9882 H         1 L9P         0.0589
     90 H30        67.9184   63.1325   15.9992 H         1 L9P         0.1020
     91 H31        67.1625   68.5523   12.2868 H         1 L9P         0.0268
     92 H32        68.7092   69.0168   11.5004 H         1 L9P         0.0268
     93 H33        66.7537   69.7249   10.1241 H         1 L9P         0.0230
     94 H34        67.6710   71.1503   10.7186 H         1 L9P         0.0230
     95 H35        66.1243   70.6858   11.5051 H         1 L9P         0.0230
     96 H36        76.7049   71.4671   18.6949 H         1 L9P         0.0297
     97 H37        75.8163   69.9152   18.8648 H         1 L9P         0.0297
     98 H38        73.2100   65.2543   12.8864 H         1 L9P         0.0237
     99 H39        71.9787   65.9497   13.9941 H         1 L9P         0.0237
    100 H40        73.7238   66.0676   14.4033 H         1 L9P         0.0237
    101 H41        72.1290   68.3449   11.1044 H         1 L9P         0.0237
    102 H42        71.0601   67.2398   12.0332 H         1 L9P         0.0237
    103 H43        72.3427   66.5664   10.9710 H         1 L9P         0.0237
    104 H44        64.3270   67.5808   10.6014 H         1 L9P         0.0251
    105 H45        65.1099   65.9816   10.8383 H         1 L9P         0.0251
    106 H46        65.5299   67.3557   11.9163 H         1 L9P         0.0251
    107 H47        75.2333   67.5583   13.0685 H         1 L9P         0.0237
    108 H48        74.5829   68.4575   11.6561 H         1 L9P         0.0237
    109 H49        74.7018   66.6660   11.6029 H         1 L9P         0.0237
    110 H50        67.7121   68.0692   16.1323 H         1 L9P         0.1839
    111 H51        65.8296   67.1028   13.9748 H         1 L9P         0.2148
    112 H52        74.0648   67.8273   15.3003 H         1 L9P         0.1899
@<TRIPOS>BOND
     1    2    1 1  
     2    4    1 1  
     3    1   55 1  
     4   45    2 1  
     5    3    4 1  
     6    5    3 1  
     7    3   45 1  
     8    4   34 1  
     9   46    5 am 
    10    5   51 2  
    11    7    6 1  
    12    6    9 1  
    13    6   10 1  
    14    6   46 1  
    15   47    7 am 
    16    7   54 2  
    17    8   11 1  
    18    8   12 1  
    19    8   39 1  
    20   60    8 1  
    21   10    9 1  
    22    9   33 1  
    23   12   11 1  
    24   13   22 ar 
    25   13   49 ar 
    26   55   13 1  
    27   14   15 1  
    28   45   14 am 
    29   14   56 2  
    30   15   31 1  
    31   15   48 1  
    32   48   16 am 
    33   16   57 2  
    34   16   58 1  
    35   17   18 1  
    36   17   36 1  
    37   58   17 1  
    38   18   19 1  
    39   36   18 1  
    40   19   30 1  
    41   20   21 ar 
    42   20   23 ar 
    43   49   20 ar 
    44   21   26 ar 
    45   50   21 ar 
    46   22   27 1  
    47   22   50 ar 
    48   23   24 ar 
    49   24   25 ar 
    50   24   59 1  
    51   26   25 ar 
    52   27   28 1  
    53   27   43 1  
    54   27   44 1  
    55   28   29 1  
    56   29   30 1  
    57   31   37 1  
    58   31   38 1  
    59   31   40 1  
    60   59   32 1  
    61   33   41 1  
    62   33   42 1  
    63   34   35 1  
    64   47   60 am 
    65   60   52 2  
    66   60   53 2  
    67    1   61 1  
    68    2   62 1  
    69    2   63 1  
    70    3   64 1  
    71    4   65 1  
    72    9   66 1  
    73   10   67 1  
    74   10   68 1  
    75   11   69 1  
    76   11   70 1  
    77   12   71 1  
    78   12   72 1  
    79   15   73 1  
    80   17   74 1  
    81   18   75 1  
    82   19   76 1  
    83   19   77 1  
    84   23   78 1  
    85   25   79 1  
    86   26   80 1  
    87   28   81 1  
    88   28   82 1  
    89   29   83 1  
    90   29   84 1  
    91   30   85 1  
    92   30   86 1  
    93   32   87 1  
    94   32   88 1  
    95   32   89 1  
    96   33   90 1  
    97   34   91 1  
    98   34   92 1  
    99   35   93 1  
   100   35   94 1  
   101   35   95 1  
   102   36   96 1  
   103   36   97 1  
   104   37   98 1  
   105   37   99 1  
   106   37  100 1  
   107   38  101 1  
   108   38  102 1  
   109   38  103 1  
   110   39  104 1  
   111   39  105 1  
   112   39  106 1  
   113   40  107 1  
   114   40  108 1  
   115   40  109 1  
   116   46  110 1  
   117   47  111 1  
   118   48  112 1  
@<TRIPOS>SUBSTRUCTURE
     1 L9P         1

