### 
### Created by X-TOOL on Mon Aug  2 16:15:28 2021
### 

@<TRIPOS>MOLECULE
6nzv_ligand
  112   118     1     0     0
SMALL
GAST_HUCK


@<TRIPOS>ATOM
      1 C01       -14.1370   12.2150  -12.9980 C.3       1 L9J         0.1144
      2 C02       -15.3680   11.3160  -12.7800 C.3       1 L9J         0.0686
      3 C04       -13.7740   10.2230  -14.2230 C.3       1 L9J         0.1392
      4 C05       -13.0570   11.1600  -13.2470 C.3       1 L9J         0.0327
      5 C06       -13.3700    8.7340  -14.2010 C.2       1 L9J         0.2016
      6 C09       -12.3170    6.9800  -15.6170 C.3       1 L9J         0.1427
      7 C10       -11.1540    6.3120  -14.9960 C.2       1 L9J         0.2446
      8 C13        -8.3930    7.4100  -12.2670 C.3       1 L9J         0.1085
      9 C17       -13.5160    6.0710  -15.9030 C.3       1 L9J         0.0541
     10 C18       -12.6430    6.5470  -17.0300 C.3       1 L9J        -0.0098
     11 C19        -6.9920    6.9930  -11.9900 C.3       1 L9J        -0.0239
     12 C20        -7.2600    8.1990  -12.8480 C.3       1 L9J        -0.0239
     13 C22       -13.5620   14.1160  -14.3950 C.ar      1 L9J         0.1985
     14 C23       -16.1660    9.4450  -14.2950 C.2       1 L9J         0.2070
     15 C25       -17.6000    9.5840  -13.7180 C.3       1 L9J         0.1378
     16 C27       -18.9370   10.8370  -15.2710 C.2       1 L9J         0.3221
     17 C30       -20.3080   11.8890  -16.8790 C.3       1 L9J         0.0914
     18 C31       -19.5220   12.4670  -18.0320 C.3       1 L9J        -0.0077
     19 C32       -19.4720   13.9620  -18.2040 C.3       1 L9J        -0.0474
     20 C34       -12.0250   15.6750  -13.7010 C.ar      1 L9J         0.0423
     21 C35       -12.1860   16.3670  -14.9200 C.ar      1 L9J         0.0479
     22 C37       -13.7370   14.7900  -15.5830 C.ar      1 L9J         0.0906
     23 C38       -11.1340   16.1570  -12.7490 C.ar      1 L9J        -0.0161
     24 C39       -10.4070   17.3330  -13.0180 C.ar      1 L9J         0.0960
     25 C40       -10.5720   18.0160  -14.2140 C.ar      1 L9J        -0.0236
     26 C41       -11.4660   17.5380  -15.1730 C.ar      1 L9J        -0.0425
     27 C42       -14.6850   14.3090  -16.6500 C.3       1 L9J         0.0041
     28 C43       -16.1290   14.7400  -16.3670 C.3       1 L9J        -0.0406
     29 C44       -17.0730   14.2550  -17.4770 C.3       1 L9J        -0.0510
     30 C45       -18.5260   14.5760  -17.1630 C.3       1 L9J        -0.0525
     31 C46       -20.8000   11.7100  -18.2880 C.3       1 L9J        -0.0165
     32 C47       -13.6340    4.6180  -15.5840 C.3       1 L9J         0.2436
     33 C49       -17.9170    8.4320  -12.7190 C.3       1 L9J         0.0025
     34 C50       -17.8150    7.0360  -13.3720 C.3       1 L9J        -0.0558
     35 C51       -16.8930    8.4690  -11.5610 C.3       1 L9J        -0.0558
     36 C53       -19.3310    8.5650  -12.1270 C.3       1 L9J        -0.0558
     37 C55        -9.2890   17.2460  -10.9240 C.3       1 L9J         0.0605
     38 C56        -9.5750    7.8050  -11.3610 C.3       1 L9J        -0.0378
     39 C57       -12.6790   10.4570  -11.9360 C.3       1 L9J        -0.0459
     40 C58       -11.9100   11.4380  -11.0270 C.3       1 L9J        -0.0647
     41 F48       -14.7420    4.1520  -16.2250 F         1 L9J        -0.2090
     42 F52       -13.8470    4.4810  -14.2370 F         1 L9J        -0.2090
     43 N03       -15.1920   10.2670  -13.7820 N.am      1 L9J        -0.2465
     44 N08       -12.7270    8.3250  -15.3450 N.am      1 L9J        -0.2735
     45 N11       -10.4390    7.0820  -14.0970 N.am      1 L9J        -0.1549
     46 N26       -18.5130    9.6210  -14.8420 N.am      1 L9J        -0.2407
     47 N33       -12.7100   14.5290  -13.4340 N.ar      1 L9J        -0.2649
     48 N36       -13.0500   15.9290  -15.8570 N.ar      1 L9J        -0.2829
     49 O07       -13.6180    7.9660  -13.2700 O.2       1 L9J        -0.3947
     50 O14        -9.6750    5.1410  -12.6040 O.2       1 L9J        -0.1501
     51 O15        -8.1590    5.8590  -14.4050 O.2       1 L9J        -0.1501
     52 O16       -10.8600    5.1520  -15.2860 O.2       1 L9J        -0.3404
     53 O21       -14.3110   12.9730  -14.2140 O.3       1 L9J        -0.2849
     54 O24       -15.9280    8.5890  -15.1600 O.2       1 L9J        -0.3942
     55 O28       -18.6270   11.9170  -14.7830 O.2       1 L9J        -0.3774
     56 O29       -19.7670   10.6800  -16.3260 O.3       1 L9J        -0.2602
     57 O54        -9.5160   17.8960  -12.1640 O.3       1 L9J        -0.3183
     58 S12        -9.1650    6.2440  -13.4260 S.o2      1 L9J         0.0671
     59 H1        -13.9206   12.8680  -12.1396 H         1 L9J         0.0686
     60 H2        -16.3002   11.8740  -12.9517 H         1 L9J         0.0555
     61 H3        -15.3747   10.8947  -11.7639 H         1 L9J         0.0555
     62 H4        -13.6564   10.6077  -15.2468 H         1 L9J         0.0806
     63 H5        -12.1566   11.5987  -13.7017 H         1 L9J         0.0378
     64 H6        -14.5178    6.5094  -15.7836 H         1 L9J         0.0367
     65 H7        -11.9845    5.8356  -17.5499 H         1 L9J         0.0281
     66 H8        -13.0322    7.2809  -17.7511 H         1 L9J         0.0281
     67 H9         -6.5922    6.0739  -12.4431 H         1 L9J         0.0288
     68 H10        -6.5702    7.1183  -10.9819 H         1 L9J         0.0288
     69 H11        -7.0376    9.2069  -12.4677 H         1 L9J         0.0288
     70 H12        -7.0596    8.1624  -13.9290 H         1 L9J         0.0288
     71 H13       -17.6758   10.5357  -13.1717 H         1 L9J         0.0805
     72 H14       -20.8185   12.5169  -16.1339 H         1 L9J         0.0650
     73 H15       -18.5562   12.0285  -18.3234 H         1 L9J         0.0330
     74 H16       -20.4812   14.3785  -18.0703 H         1 L9J         0.0269
     75 H17       -19.1075   14.2010  -19.2139 H         1 L9J         0.0269
     76 H18       -11.0001   15.6332  -11.8094 H         1 L9J         0.0508
     77 H19       -10.0065   18.9211  -14.4037 H         1 L9J         0.0606
     78 H20       -11.6011   18.0709  -16.1072 H         1 L9J         0.0637
     79 H21       -14.6437   13.2107  -16.6939 H         1 L9J         0.0462
     80 H22       -14.3724   14.7267  -17.6184 H         1 L9J         0.0462
     81 H23       -16.1729   15.8377  -16.3111 H         1 L9J         0.0291
     82 H24       -16.4515   14.3107  -15.4069 H         1 L9J         0.0291
     83 H25       -16.9646   13.1658  -17.5859 H         1 L9J         0.0267
     84 H26       -16.7956   14.7474  -18.4207 H         1 L9J         0.0267
     85 H27       -18.7753   14.1725  -16.1705 H         1 L9J         0.0265
     86 H28       -18.6585   15.6680  -17.1588 H         1 L9J         0.0265
     87 H29       -21.6976   12.2468  -18.6288 H         1 L9J         0.0297
     88 H30       -20.7652   10.7171  -18.7601 H         1 L9J         0.0297
     89 H31       -12.7327    4.0708  -15.8974 H         1 L9J         0.1020
     90 H32       -18.0479    6.2636  -12.6243 H         1 L9J         0.0237
     91 H33       -16.7942    6.8826  -13.7519 H         1 L9J         0.0237
     92 H34       -18.5303    6.9676  -14.2048 H         1 L9J         0.0237
     93 H35       -16.9335    9.4510  -11.0670 H         1 L9J         0.0237
     94 H36       -15.8819    8.3008  -11.9601 H         1 L9J         0.0237
     95 H37       -17.1352    7.6816  -10.8321 H         1 L9J         0.0237
     96 H38       -20.0724    8.5404  -12.9393 H         1 L9J         0.0237
     97 H39       -19.4132    9.5183  -11.5844 H         1 L9J         0.0237
     98 H40       -19.5184    7.7314  -11.4342 H         1 L9J         0.0237
     99 H41        -8.5480   17.8141  -10.3425 H         1 L9J         0.0580
    100 H42        -8.9105   16.2295  -11.1067 H         1 L9J         0.0580
    101 H43       -10.2324   17.1904  -10.3610 H         1 L9J         0.0580
    102 H44        -9.2309    8.5224  -10.6014 H         1 L9J         0.0251
    103 H45        -9.9723    6.9075  -10.8644 H         1 L9J         0.0251
    104 H46       -10.3656    8.2672  -11.9703 H         1 L9J         0.0251
    105 H47       -12.0429    9.5872  -12.1570 H         1 L9J         0.0268
    106 H48       -13.5928   10.1222  -11.4232 H         1 L9J         0.0268
    107 H49       -11.6399   10.9327  -10.0880 H         1 L9J         0.0230
    108 H50       -12.5458   12.3078  -10.8055 H         1 L9J         0.0230
    109 H51       -10.9960   11.7728  -11.5393 H         1 L9J         0.0230
    110 H52       -12.5310    9.0180  -16.0388 H         1 L9J         0.1839
    111 H53       -10.6609    8.0316  -13.8754 H         1 L9J         0.2148
    112 H54       -18.8203    8.7796  -15.2866 H         1 L9J         0.1899
@<TRIPOS>BOND
     1    2    1 1  
     2    4    1 1  
     3    1   53 1  
     4   43    2 1  
     5    3    4 1  
     6    5    3 1  
     7    3   43 1  
     8    4   39 1  
     9   44    5 am 
    10    5   49 2  
    11    7    6 1  
    12    6    9 1  
    13    6   10 1  
    14    6   44 1  
    15   45    7 am 
    16    7   52 2  
    17    8   11 1  
    18    8   12 1  
    19    8   38 1  
    20   58    8 1  
    21   10    9 1  
    22    9   32 1  
    23   12   11 1  
    24   13   22 ar 
    25   13   47 ar 
    26   53   13 1  
    27   14   15 1  
    28   43   14 am 
    29   14   54 2  
    30   15   33 1  
    31   15   46 1  
    32   46   16 am 
    33   16   55 2  
    34   16   56 1  
    35   17   18 1  
    36   17   31 1  
    37   56   17 1  
    38   18   19 1  
    39   31   18 1  
    40   19   30 1  
    41   20   21 ar 
    42   20   23 ar 
    43   47   20 ar 
    44   21   26 ar 
    45   48   21 ar 
    46   22   27 1  
    47   22   48 ar 
    48   23   24 ar 
    49   24   25 ar 
    50   24   57 1  
    51   26   25 ar 
    52   27   28 1  
    53   28   29 1  
    54   29   30 1  
    55   32   41 1  
    56   32   42 1  
    57   33   34 1  
    58   33   35 1  
    59   33   36 1  
    60   57   37 1  
    61   39   40 1  
    62   45   58 am 
    63   58   50 2  
    64   58   51 2  
    65    1   59 1  
    66    2   60 1  
    67    2   61 1  
    68    3   62 1  
    69    4   63 1  
    70    9   64 1  
    71   10   65 1  
    72   10   66 1  
    73   11   67 1  
    74   11   68 1  
    75   12   69 1  
    76   12   70 1  
    77   15   71 1  
    78   17   72 1  
    79   18   73 1  
    80   19   74 1  
    81   19   75 1  
    82   23   76 1  
    83   25   77 1  
    84   26   78 1  
    85   27   79 1  
    86   27   80 1  
    87   28   81 1  
    88   28   82 1  
    89   29   83 1  
    90   29   84 1  
    91   30   85 1  
    92   30   86 1  
    93   31   87 1  
    94   31   88 1  
    95   32   89 1  
    96   34   90 1  
    97   34   91 1  
    98   34   92 1  
    99   35   93 1  
   100   35   94 1  
   101   35   95 1  
   102   36   96 1  
   103   36   97 1  
   104   36   98 1  
   105   37   99 1  
   106   37  100 1  
   107   37  101 1  
   108   38  102 1  
   109   38  103 1  
   110   38  104 1  
   111   39  105 1  
   112   39  106 1  
   113   40  107 1  
   114   40  108 1  
   115   40  109 1  
   116   44  110 1  
   117   45  111 1  
   118   46  112 1  
@<TRIPOS>SUBSTRUCTURE
     1 L9J         1

