### 
### Created by X-TOOL on Mon Aug  2 16:11:03 2021
### 

@<TRIPOS>MOLECULE
6o0h_ligand
   44    46     1     0     0
SMALL
GAST_HUCK


@<TRIPOS>ATOM
      1 C1        128.5110  152.2790  183.2030 C.ar      1 LBG         0.0760
      2 C10       128.6060  160.1350  182.7650 C.ar      1 LBG        -0.0562
      3 C11       128.1280  160.9950  181.8110 C.ar      1 LBG        -0.0625
      4 C12       128.1070  160.6030  180.4980 C.ar      1 LBG        -0.0628
      5 C13       128.5510  159.3560  180.1380 C.ar      1 LBG        -0.0625
      6 C14       129.0330  158.5060  181.0980 C.ar      1 LBG        -0.0562
      7 C15       128.7160  157.3410  184.2630 C.ar      1 LBG        -0.0406
      8 C16       127.0360  154.6210  182.8900 C.ar      1 LBG        -0.0216
      9 C17       127.4430  153.8560  181.8260 C.ar      1 LBG         0.0531
     10 C18       127.0910  154.2710  180.4810 C.2       1 LBG         0.2547
     11 C19       125.5690  155.4900  179.3600 C.3       1 LBG         0.0645
     12 C2        128.1240  153.0220  184.2770 C.ar      1 LBG         0.1347
     13 C20       128.1700  152.6990  181.9460 C.ar      1 LBG        -0.0349
     14 C3        127.4130  154.1720  184.1250 C.ar      1 LBG         0.1486
     15 C4        129.2320  156.4600  185.1740 C.ar      1 LBG         0.0932
     16 C5        130.5820  156.2600  185.2310 C.ar      1 LBG         0.1471
     17 C6        131.4450  156.8930  184.3870 C.ar      1 LBG        -0.0081
     18 C7        130.9100  157.7430  183.4670 C.ar      1 LBG         0.1217
     19 C8        129.5650  157.9870  183.3970 C.ar      1 LBG        -0.0034
     20 C9        129.0660  158.8940  182.4110 C.ar      1 LBG        -0.0243
     21 F1        131.0900  155.4140  186.1310 F         1 LBG        -0.1954
     22 F2        131.7490  158.3710  182.6390 F         1 LBG        -0.1963
     23 N1        128.4270  155.7530  186.1140 N.am      1 LBG        -0.1900
     24 O1        128.4660  152.6030  185.5320 O.3       1 LBG        -0.3266
     25 O2        126.0070  156.0570  185.1960 O.2       1 LBG        -0.1465
     26 O3        126.6000  154.0000  186.5230 O.2       1 LBG        -0.1465
     27 O4        127.4340  153.6740  179.4740 O.2       1 LBG        -0.3623
     28 O5        126.3120  155.3730  180.5630 O.3       1 LBG        -0.2824
     29 S1        126.9620  155.0420  185.5860 S.o2      1 LBG         0.0874
     30 CL1       129.4180  150.8460  183.4580 Cl        1 LBG        -0.0773
     31 H1        128.6202  160.4384  183.8056 H         1 LBG         0.0613
     32 H2        127.7691  161.9782  182.0930 H         1 LBG         0.0615
     33 H3        127.7371  161.2828  179.7389 H         1 LBG         0.0608
     34 H4        128.5206  159.0451  179.1000 H         1 LBG         0.0615
     35 H5        129.3899  157.5217  180.8171 H         1 LBG         0.0613
     36 H6        127.6488  157.5273  184.2249 H         1 LBG         0.0460
     37 H7        126.4520  155.5249  182.7594 H         1 LBG         0.0666
     38 H8        124.9287  156.3830  179.4099 H         1 LBG         0.0575
     39 H9        124.9418  154.5961  179.2280 H         1 LBG         0.0575
     40 H10       126.2604  155.5817  178.5094 H         1 LBG         0.0575
     41 H11       128.4660  152.1334  181.0699 H         1 LBG         0.0651
     42 H12       132.5145  156.7266  184.4456 H         1 LBG         0.0550
     43 H13       128.7140  155.6734  187.0686 H         1 LBG         0.2131
     44 H14       127.6778  152.4606  186.0429 H         1 LBG         0.2507
@<TRIPOS>BOND
     1   12    1 ar 
     2    1   13 ar 
     3    1   30 1  
     4    2    3 ar 
     5   20    2 ar 
     6    3    4 ar 
     7    5    4 ar 
     8    6    5 ar 
     9   20    6 ar 
    10   15    7 ar 
    11    7   19 ar 
    12    8    9 ar 
    13   14    8 ar 
    14    9   10 1  
    15    9   13 ar 
    16   10   27 2  
    17   10   28 1  
    18   28   11 1  
    19   14   12 ar 
    20   12   24 1  
    21   29   14 1  
    22   15   16 ar 
    23   23   15 1  
    24   16   17 ar 
    25   16   21 1  
    26   17   18 ar 
    27   19   18 ar 
    28   18   22 1  
    29   19   20 1  
    30   23   29 am 
    31   29   25 2  
    32   29   26 2  
    33    2   31 1  
    34    3   32 1  
    35    4   33 1  
    36    5   34 1  
    37    6   35 1  
    38    7   36 1  
    39    8   37 1  
    40   11   38 1  
    41   11   39 1  
    42   11   40 1  
    43   13   41 1  
    44   17   42 1  
    45   23   43 1  
    46   24   44 1  
@<TRIPOS>SUBSTRUCTURE
     1 LBG         1

