### 
### Created by X-TOOL on Mon Aug  2 16:15:28 2021
### 

@<TRIPOS>MOLECULE
6o0k_ligand
  112   119     1     0     0
SMALL
GAST_HUCK


@<TRIPOS>ATOM
      1 C11       -11.2570    0.5630  -17.6880 C.ar      1 LBM        -0.0567
      2 C12       -12.0680    1.6010  -18.0860 C.ar      1 LBM        -0.0663
      3 C13       -15.0160    3.0490  -16.5960 C.3       1 LBM         0.0019
      4 C14       -14.8260    4.3860  -14.5620 C.3       1 LBM        -0.0098
      5 C15       -15.5670    4.9970  -13.3670 C.3       1 LBM         0.0679
      6 C16       -17.1930    3.2100  -13.5180 C.3       1 LBM         0.0679
      7 C17       -16.4150    2.5940  -14.6670 C.3       1 LBM        -0.0098
      8 C19       -17.3740    3.1040  -10.6610 C.ar      1 LBM        -0.0059
      9 C20       -17.7680    3.2500   -9.3530 C.ar      1 LBM         0.1247
     10 C22       -16.7970    5.4230   -9.2780 C.ar      1 LBM        -0.0602
     11 C23       -16.4120    5.2880  -10.5990 C.ar      1 LBM        -0.0482
     12 C24       -17.9060    4.5940   -7.1870 C.2       1 LBM         0.2105
     13 C25       -16.9300    3.8910   -4.3090 C.ar      1 LBM         0.1080
     14 C26       -15.6000    3.5600   -4.0520 C.ar      1 LBM        -0.0029
     15 C28       -16.2720    1.2480   -3.5340 C.ar      1 LBM         0.0836
     16 C29       -17.5970    1.6270   -3.8270 C.ar      1 LBM        -0.0333
     17 C31       -16.8710   -1.1300   -2.9750 C.3       1 LBM         0.0287
     18 N         -15.7440    3.6500  -15.4610 N.4       1 LBM         0.2518
     19 C         -12.3770    6.7430  -20.2490 C.3       1 LBM        -0.0586
     20 O         -18.8330    3.9610   -6.6680 O.2       1 LBM        -0.3948
     21 C1        -13.0320    6.0960  -19.0290 C.3       1 LBM        -0.0288
     22 C10       -10.5780    0.6310  -16.4790 C.ar      1 LBM         0.0314
     23 C18       -16.7060    4.1200  -11.3180 C.ar      1 LBM         0.0376
     24 C2        -14.4510    5.6360  -19.3790 C.3       1 LBM        -0.0356
     25 C21       -17.5030    4.4070   -8.6200 C.ar      1 LBM         0.0706
     26 C27       -15.2900    2.2650   -3.6780 C.ar      1 LBM         0.2184
     27 C3        -15.1810    5.0840  -18.1630 C.3       1 LBM        -0.0136
     28 C30       -17.9250    2.9380   -4.1870 C.ar      1 LBM        -0.0409
     29 C32       -16.2740   -2.2170   -2.0920 C.3       1 LBM        -0.0171
     30 C33       -17.0560   -3.5200   -2.2130 C.3       1 LBM        -0.0247
     31 C34       -16.4140   -4.5860   -1.3510 C.3       1 LBM         0.0480
     32 C35       -14.2990   -3.6180   -1.5400 C.3       1 LBM         0.0480
     33 C36       -14.8200   -2.4990   -2.4110 C.3       1 LBM        -0.0247
     34 C37       -17.6980    1.2410   -8.0340 C.ar      1 LBM         0.1275
     35 C38       -18.3100    0.0570   -7.6720 C.ar      1 LBM         0.0296
     36 C39       -16.3850   -0.7060   -6.6990 C.ar      1 LBM         0.1269
     37 C4        -14.3240    4.0380  -17.4950 C.2       1 LBM        -0.0126
     38 C40       -15.6900    0.4850   -6.9970 C.ar      1 LBM        -0.0091
     39 C41       -16.3600    1.4750   -7.7080 C.ar      1 LBM        -0.0240
     40 C42       -14.3250    0.2820   -6.5220 C.2       1 LBM        -0.0595
     41 C43       -14.2800   -0.9750   -6.0050 C.2       1 LBM         0.0248
     42 C44       -13.0730    7.1040  -17.8840 C.3       1 LBM        -0.0586
     43 C5        -12.9850    3.8940  -17.7660 C.2       1 LBM        -0.0487
     44 C6        -12.2200    4.8700  -18.6040 C.3       1 LBM        -0.0307
     45 C7        -12.1760    2.7490  -17.3010 C.ar      1 LBM        -0.0459
     46 C8        -11.4990    2.7990  -16.0840 C.ar      1 LBM        -0.0663
     47 C9        -10.7100    1.7510  -15.6720 C.ar      1 LBM        -0.0567
     48 N1        -16.2990    3.9560  -12.6300 N.pl3     1 LBM        -0.2978
     49 N2        -17.1700    5.4960   -6.4440 N.am      1 LBM        -0.1581
     50 N3        -15.9320   -0.0240   -3.1080 N.pl3     1 LBM        -0.3158
     51 N4        -13.8690    1.9970   -3.4910 N.2       1 LBM         0.3063
     52 N5        -17.6780   -0.9430   -7.0430 N.ar      1 LBM        -0.2919
     53 N6        -15.5250   -1.5830   -6.1060 N.pl3     1 LBM        -0.2695
     54 O1        -18.6600    5.8650   -4.4680 O.2       1 LBM        -0.1472
     55 O2        -16.2510    6.4230   -4.4000 O.2       1 LBM        -0.1472
     56 O3        -15.0610   -4.8120   -1.7330 O.3       1 LBM        -0.3797
     57 O4        -13.5100    0.8880   -3.1440 O.2       1 LBM         0.1710
     58 O5        -13.0850    2.9260   -3.6660 O.2       1 LBM         0.1710
     59 O6        -18.4110    2.2020   -8.7210 O.3       1 LBM        -0.2575
     60 S         -17.2960    5.5550   -4.8450 S.o2      1 LBM         0.0855
     61 CL         -9.6200   -0.7070  -15.9500 Cl        1 LBM        -0.0781
     62 H1        -11.1480   -0.3106  -18.3205 H         1 LBM         0.0600
     63 H2        -12.6250    1.5263  -19.0130 H         1 LBM         0.0546
     64 H3        -15.7364    2.4806  -17.2026 H         1 LBM         0.1006
     65 H4        -14.2563    2.3641  -16.1915 H         1 LBM         0.1006
     66 H5        -14.0602    3.6904  -14.1882 H         1 LBM         0.0834
     67 H6        -14.3417    5.1932  -15.1311 H         1 LBM         0.0834
     68 H7        -16.2793    5.7525  -13.7301 H         1 LBM         0.0569
     69 H8        -14.8387    5.4731  -12.6940 H         1 LBM         0.0569
     70 H9        -17.6859    2.4104  -12.9457 H         1 LBM         0.0569
     71 H10       -17.9537    3.8939  -13.9224 H         1 LBM         0.0569
     72 H11       -17.1069    2.0371  -15.3159 H         1 LBM         0.0834
     73 H12       -15.6567    1.9066  -14.2640 H         1 LBM         0.0834
     74 H13       -17.5899    2.1797  -11.1847 H         1 LBM         0.0455
     75 H14       -16.5482    6.3314   -8.7414 H         1 LBM         0.0612
     76 H15       -15.8761    6.0951  -11.0853 H         1 LBM         0.0448
     77 H16       -14.8200    4.3071   -4.1440 H         1 LBM         0.0677
     78 H17       -18.3831    0.8826   -3.7719 H         1 LBM         0.0533
     79 H18       -17.8035   -0.7634   -2.5212 H         1 LBM         0.0519
     80 H19       -17.0864   -1.5465   -3.9700 H         1 LBM         0.0519
     81 H20       -16.4360    4.2880  -15.8216 H         1 LBM         0.2052
     82 H21       -12.9606    7.6240  -20.5544 H         1 LBM         0.0236
     83 H22       -12.3466    6.0186  -21.0762 H         1 LBM         0.0236
     84 H23       -11.3525    7.0521  -19.9944 H         1 LBM         0.0236
     85 H24       -14.3917    4.8499  -20.1461 H         1 LBM         0.0298
     86 H25       -15.0158    6.4928  -19.7750 H         1 LBM         0.0298
     87 H26       -16.1319    4.6311  -18.4803 H         1 LBM         0.0453
     88 H27       -15.3823    5.9006  -17.4541 H         1 LBM         0.0453
     89 H28       -18.9589    3.2072   -4.3704 H         1 LBM         0.0647
     90 H29       -16.3350   -1.8698   -1.0500 H         1 LBM         0.0321
     91 H30       -17.0556   -3.8499   -3.2623 H         1 LBM         0.0291
     92 H31       -18.0917   -3.3565   -1.8804 H         1 LBM         0.0291
     93 H32       -16.9788   -5.5236   -1.4599 H         1 LBM         0.0560
     94 H33       -16.4406   -4.2618   -0.3002 H         1 LBM         0.0560
     95 H34       -14.3665   -3.3144   -0.4849 H         1 LBM         0.0560
     96 H35       -13.2482   -3.8158   -1.7981 H         1 LBM         0.0560
     97 H36       -14.2260   -1.5912   -2.2291 H         1 LBM         0.0291
     98 H37       -14.7304   -2.7903   -3.4679 H         1 LBM         0.0291
     99 H38       -19.3599   -0.0703   -7.9100 H         1 LBM         0.0705
    100 H39       -15.8627    2.3934   -7.9982 H         1 LBM         0.0578
    101 H40       -13.5044    0.9962   -6.5718 H         1 LBM         0.0292
    102 H41       -13.3943   -1.4388   -5.5734 H         1 LBM         0.0958
    103 H42       -12.0494    7.4262  -17.6424 H         1 LBM         0.0236
    104 H43       -13.5284    6.6354  -16.9991 H         1 LBM         0.0236
    105 H44       -13.6707    7.9769  -18.1852 H         1 LBM         0.0236
    106 H45       -11.3499    5.2147  -18.0260 H         1 LBM         0.0349
    107 H46       -11.8757    4.3517  -19.5111 H         1 LBM         0.0349
    108 H47       -11.5957    3.6757  -15.4538 H         1 LBM         0.0546
    109 H48       -10.1933    1.8001  -14.7203 H         1 LBM         0.0600
    110 H49       -16.5472    6.1239   -6.9108 H         1 LBM         0.2129
    111 H50       -14.9461   -0.2012   -2.8682 H         1 LBM         0.1789
    112 H51       -15.7588   -2.5341   -5.7873 H         1 LBM         0.2285
@<TRIPOS>BOND
     1    2    1 ar 
     2    1   22 ar 
     3   45    2 ar 
     4   18    3 1  
     5    3   37 1  
     6    5    4 1  
     7    4   18 1  
     8   48    5 1  
     9    6    7 1  
    10   48    6 1  
    11    7   18 1  
    12    9    8 ar 
    13    8   23 ar 
    14   25    9 ar 
    15    9   59 1  
    16   10   11 ar 
    17   25   10 ar 
    18   11   23 ar 
    19   12   20 2  
    20   12   25 1  
    21   49   12 am 
    22   13   14 ar 
    23   13   28 ar 
    24   60   13 1  
    25   14   26 ar 
    26   16   15 ar 
    27   26   15 ar 
    28   15   50 1  
    29   28   16 ar 
    30   17   29 1  
    31   50   17 1  
    32   21   19 1  
    33   24   21 1  
    34   21   42 1  
    35   44   21 1  
    36   47   22 ar 
    37   22   61 1  
    38   23   48 1  
    39   27   24 1  
    40   26   51 1  
    41   37   27 1  
    42   29   30 1  
    43   29   33 1  
    44   30   31 1  
    45   31   56 1  
    46   33   32 1  
    47   32   56 1  
    48   34   35 ar 
    49   34   39 ar 
    50   59   34 1  
    51   35   52 ar 
    52   38   36 ar 
    53   52   36 ar 
    54   36   53 1  
    55   37   43 2  
    56   39   38 ar 
    57   38   40 1  
    58   40   41 2  
    59   41   53 1  
    60   43   44 1  
    61   43   45 1  
    62   45   46 ar 
    63   46   47 ar 
    64   49   60 am 
    65   51   57 2  
    66   51   58 2  
    67   60   54 2  
    68   60   55 2  
    69    1   62 1  
    70    2   63 1  
    71    3   64 1  
    72    3   65 1  
    73    4   66 1  
    74    4   67 1  
    75    5   68 1  
    76    5   69 1  
    77    6   70 1  
    78    6   71 1  
    79    7   72 1  
    80    7   73 1  
    81    8   74 1  
    82   10   75 1  
    83   11   76 1  
    84   14   77 1  
    85   16   78 1  
    86   17   79 1  
    87   17   80 1  
    88   18   81 1  
    89   19   82 1  
    90   19   83 1  
    91   19   84 1  
    92   24   85 1  
    93   24   86 1  
    94   27   87 1  
    95   27   88 1  
    96   28   89 1  
    97   29   90 1  
    98   30   91 1  
    99   30   92 1  
   100   31   93 1  
   101   31   94 1  
   102   32   95 1  
   103   32   96 1  
   104   33   97 1  
   105   33   98 1  
   106   35   99 1  
   107   39  100 1  
   108   40  101 1  
   109   41  102 1  
   110   42  103 1  
   111   42  104 1  
   112   42  105 1  
   113   44  106 1  
   114   44  107 1  
   115   46  108 1  
   116   47  109 1  
   117   49  110 1  
   118   50  111 1  
   119   53  112 1  
@<TRIPOS>SUBSTRUCTURE
     1 LBM         1

