### 
### Created by X-TOOL on Mon Aug  2 16:15:28 2021
### 

@<TRIPOS>MOLECULE
6o0m_ligand
  112   119     1     0     0
SMALL
GAST_HUCK


@<TRIPOS>ATOM
      1 C11       -11.0990    0.5630  -17.9070 C.ar      1 LBM        -0.0567
      2 C12       -11.9710    1.5910  -18.2120 C.ar      1 LBM        -0.0663
      3 C13       -14.9290    2.6630  -16.5870 C.3       1 LBM         0.0019
      4 C14       -14.5220    3.7080  -14.4510 C.3       1 LBM        -0.0098
      5 C15       -15.1780    4.3470  -13.2500 C.3       1 LBM         0.0679
      6 C16       -17.0080    2.7560  -13.4580 C.3       1 LBM         0.0679
      7 C17       -16.3070    2.1640  -14.6670 C.3       1 LBM        -0.0098
      8 C19       -17.2020    3.0030  -10.4700 C.ar      1 LBM        -0.0059
      9 C20       -17.6370    3.4730   -9.2440 C.ar      1 LBM         0.1247
     10 C22       -16.7500    5.6350   -9.7480 C.ar      1 LBM        -0.0602
     11 C23       -16.3110    5.1700  -10.9720 C.ar      1 LBM        -0.0482
     12 C24       -17.7310    5.3870   -7.5190 C.2       1 LBM         0.2105
     13 C25       -16.9160    3.7200   -4.0740 C.ar      1 LBM         0.1080
     14 C26       -15.5850    3.4220   -3.8380 C.ar      1 LBM        -0.0029
     15 C28       -16.2190    1.1160   -3.3270 C.ar      1 LBM         0.0836
     16 C29       -17.5490    1.4870   -3.5160 C.ar      1 LBM        -0.0333
     17 C31       -16.9210   -1.1930   -2.8960 C.3       1 LBM         0.0287
     18 N         -15.5360    3.1920  -15.3670 N.4       1 LBM         0.2518
     19 C         -13.8850    4.7280  -20.4490 C.3       1 LBM        -0.0586
     20 O         -18.5960    6.2430   -7.3650 O.2       1 LBM        -0.3948
     21 C1        -13.3730    5.6480  -19.3400 C.3       1 LBM        -0.0288
     22 C10       -10.3860    0.5850  -16.7250 C.ar      1 LBM         0.0314
     23 C18       -16.5210    3.8490  -11.3480 C.ar      1 LBM         0.0376
     24 C2        -14.5400    6.1190  -18.4620 C.3       1 LBM        -0.0356
     25 C21       -17.4090    4.7970   -8.8540 C.ar      1 LBM         0.0706
     26 C27       -15.2430    2.1360   -3.4870 C.ar      1 LBM         0.2184
     27 C3        -15.2110    4.9960  -17.6670 C.3       1 LBM        -0.0136
     28 C30       -17.9040    2.7720   -3.8810 C.ar      1 LBM        -0.0409
     29 C32       -16.4300   -2.2860   -1.9690 C.3       1 LBM        -0.0171
     30 C33       -17.3150   -3.5200   -2.0840 C.3       1 LBM        -0.0247
     31 C34       -16.7420   -4.6390   -1.2520 C.3       1 LBM         0.0480
     32 C35       -14.5620   -3.8350   -1.4650 C.3       1 LBM         0.0480
     33 C36       -14.9960   -2.6670   -2.3110 C.3       1 LBM        -0.0247
     34 C37       -17.6650    1.5030   -7.8520 C.ar      1 LBM         0.1275
     35 C38       -18.3220    0.2860   -7.7480 C.ar      1 LBM         0.0296
     36 C39       -16.4870   -0.7000   -6.7970 C.ar      1 LBM         0.1269
     37 C4        -14.3270    3.8290  -17.3200 C.2       1 LBM        -0.0126
     38 C40       -15.7250    0.4990   -6.8640 C.ar      1 LBM        -0.0091
     39 C41       -16.3540    1.6170   -7.4120 C.ar      1 LBM        -0.0240
     40 C42       -14.4500    0.1900   -6.2950 C.2       1 LBM        -0.0595
     41 C43       -14.4840   -1.1160   -5.9240 C.2       1 LBM         0.0248
     42 C44       -12.6750    6.8520  -19.9720 C.3       1 LBM        -0.0586
     43 C5        -13.0240    3.7830  -17.6710 C.2       1 LBM        -0.0487
     44 C6        -12.3860    4.8900  -18.4500 C.3       1 LBM        -0.0307
     45 C7        -12.1300    2.6490  -17.3290 C.ar      1 LBM        -0.0459
     46 C8        -11.4230    2.6610  -16.1350 C.ar      1 LBM        -0.0663
     47 C9        -10.5540    1.6280  -15.8380 C.ar      1 LBM        -0.0567
     48 N1        -16.0380    3.3840  -12.5570 N.pl3     1 LBM        -0.2978
     49 N2        -16.9730    4.9280   -6.4580 N.am      1 LBM        -0.1581
     50 N3        -15.8950   -0.1740   -3.0350 N.pl3     1 LBM        -0.3158
     51 N4        -13.8130    1.8750   -3.3420 N.2       1 LBM         0.3063
     52 N5        -17.7550   -0.8130   -7.2300 N.ar      1 LBM        -0.2919
     53 N6        -15.7120   -1.6640   -6.2230 N.pl3     1 LBM        -0.2695
     54 O1        -18.7110    5.4620   -4.7490 O.2       1 LBM        -0.1472
     55 O2        -16.3770    6.2280   -4.4460 O.2       1 LBM        -0.1472
     56 O3        -15.4160   -4.9570   -1.6600 O.3       1 LBM        -0.3797
     57 O4        -13.4580    0.7750   -2.9480 O.2       1 LBM         0.1710
     58 O5        -13.0310    2.7690   -3.6330 O.2       1 LBM         0.1710
     59 O6        -18.3200    2.6210   -8.3770 O.3       1 LBM        -0.2575
     60 S         -17.3050    5.2290   -4.8830 S.o2      1 LBM         0.0855
     61 CL         -9.2570   -0.6910  -16.3670 Cl        1 LBM        -0.0781
     62 H1        -10.9745   -0.2630  -18.5979 H         1 LBM         0.0600
     63 H2        -12.5302    1.5705  -19.1404 H         1 LBM         0.0546
     64 H3        -15.6950    2.1794  -17.2110 H         1 LBM         0.1006
     65 H4        -14.1472    1.9319  -16.3336 H         1 LBM         0.1006
     66 H5        -13.8801    2.8798  -14.1163 H         1 LBM         0.0834
     67 H6        -13.9100    4.4586  -14.9726 H         1 LBM         0.0834
     68 H7        -15.7866    5.2009  -13.5824 H         1 LBM         0.0569
     69 H8        -14.3991    4.6992  -12.5577 H         1 LBM         0.0569
     70 H9        -17.5371    1.9563  -12.9191 H         1 LBM         0.0569
     71 H10       -17.7320    3.5128  -13.7942 H         1 LBM         0.0569
     72 H11       -17.0588    1.7459  -15.3526 H         1 LBM         0.0834
     73 H12       -15.6276    1.3647  -14.3361 H         1 LBM         0.0834
     74 H13       -17.3906    1.9731  -10.7507 H         1 LBM         0.0455
     75 H14       -16.5782    6.6710   -9.4791 H         1 LBM         0.0612
     76 H15       -15.7964    5.8437  -11.6475 H         1 LBM         0.0448
     77 H16       -14.8244    4.1891   -3.9282 H         1 LBM         0.0677
     78 H17       -18.3275    0.7465   -3.3726 H         1 LBM         0.0533
     79 H18       -17.8321   -0.7403   -2.4778 H         1 LBM         0.0519
     80 H19       -17.1453   -1.6236   -3.8831 H         1 LBM         0.0519
     81 H20       -16.1556    3.9445  -15.6238 H         1 LBM         0.2052
     82 H21       -14.5937    5.2792  -21.0846 H         1 LBM         0.0236
     83 H22       -14.3922    3.8608  -20.0011 H         1 LBM         0.0236
     84 H23       -13.0375    4.3823  -21.0591 H         1 LBM         0.0236
     85 H24       -15.2967    6.5833  -19.1115 H         1 LBM         0.0298
     86 H25       -14.1586    6.8666  -17.7509 H         1 LBM         0.0298
     87 H26       -16.0544    4.6166  -18.2626 H         1 LBM         0.0453
     88 H27       -15.5893    5.4254  -16.7276 H         1 LBM         0.0453
     89 H28       -18.9473    3.0342   -4.0147 H         1 LBM         0.0647
     90 H29       -16.4654   -1.9147   -0.9342 H         1 LBM         0.0321
     91 H30       -17.3655   -3.8364   -3.1363 H         1 LBM         0.0291
     92 H31       -18.3263   -3.2788   -1.7247 H         1 LBM         0.0291
     93 H32       -17.3757   -5.5309   -1.3650 H         1 LBM         0.0560
     94 H33       -16.7282   -4.3304   -0.1963 H         1 LBM         0.0560
     95 H34       -14.5918   -3.5413   -0.4054 H         1 LBM         0.0560
     96 H35       -13.5341   -4.1145   -1.7393 H         1 LBM         0.0560
     97 H36       -14.3344   -1.8099   -2.1169 H         1 LBM         0.0291
     98 H37       -14.9354   -2.9437   -3.3739 H         1 LBM         0.0291
     99 H38       -19.3441    0.2201   -8.1030 H         1 LBM         0.0705
    100 H39       -15.8266    2.5606   -7.4929 H         1 LBM         0.0578
    101 H40       -13.6098    0.8734   -6.1807 H         1 LBM         0.0292
    102 H41       -13.6593   -1.6527   -5.4574 H         1 LBM         0.0958
    103 H42       -11.8406    6.5046  -20.5990 H         1 LBM         0.0236
    104 H43       -12.2889    7.5097  -19.1794 H         1 LBM         0.0236
    105 H44       -13.3931    7.4081  -20.5925 H         1 LBM         0.0236
    106 H45       -11.9363    5.6015  -17.7419 H         1 LBM         0.0349
    107 H46       -11.5993    4.4603  -19.0875 H         1 LBM         0.0349
    108 H47       -11.5521    3.4795  -15.4361 H         1 LBM         0.0546
    109 H48       -10.0026    1.6375  -14.9048 H         1 LBM         0.0600
    110 H49       -16.1668    4.3743   -6.6666 H         1 LBM         0.2129
    111 H50       -14.9055   -0.4317   -2.9106 H         1 LBM         0.1789
    112 H51       -15.9967   -2.6374   -6.0433 H         1 LBM         0.2285
@<TRIPOS>BOND
     1    2    1 ar 
     2    1   22 ar 
     3   45    2 ar 
     4   18    3 1  
     5    3   37 1  
     6    5    4 1  
     7    4   18 1  
     8   48    5 1  
     9    6    7 1  
    10   48    6 1  
    11    7   18 1  
    12    9    8 ar 
    13    8   23 ar 
    14   25    9 ar 
    15    9   59 1  
    16   10   11 ar 
    17   25   10 ar 
    18   11   23 ar 
    19   12   20 2  
    20   12   25 1  
    21   49   12 am 
    22   13   14 ar 
    23   13   28 ar 
    24   60   13 1  
    25   14   26 ar 
    26   16   15 ar 
    27   26   15 ar 
    28   15   50 1  
    29   28   16 ar 
    30   17   29 1  
    31   50   17 1  
    32   21   19 1  
    33   24   21 1  
    34   21   42 1  
    35   44   21 1  
    36   47   22 ar 
    37   22   61 1  
    38   23   48 1  
    39   27   24 1  
    40   26   51 1  
    41   37   27 1  
    42   29   30 1  
    43   29   33 1  
    44   30   31 1  
    45   31   56 1  
    46   33   32 1  
    47   32   56 1  
    48   34   35 ar 
    49   34   39 ar 
    50   59   34 1  
    51   35   52 ar 
    52   38   36 ar 
    53   52   36 ar 
    54   36   53 1  
    55   37   43 2  
    56   39   38 ar 
    57   38   40 1  
    58   40   41 2  
    59   41   53 1  
    60   43   44 1  
    61   43   45 1  
    62   45   46 ar 
    63   46   47 ar 
    64   49   60 am 
    65   51   57 2  
    66   51   58 2  
    67   60   54 2  
    68   60   55 2  
    69    1   62 1  
    70    2   63 1  
    71    3   64 1  
    72    3   65 1  
    73    4   66 1  
    74    4   67 1  
    75    5   68 1  
    76    5   69 1  
    77    6   70 1  
    78    6   71 1  
    79    7   72 1  
    80    7   73 1  
    81    8   74 1  
    82   10   75 1  
    83   11   76 1  
    84   14   77 1  
    85   16   78 1  
    86   17   79 1  
    87   17   80 1  
    88   18   81 1  
    89   19   82 1  
    90   19   83 1  
    91   19   84 1  
    92   24   85 1  
    93   24   86 1  
    94   27   87 1  
    95   27   88 1  
    96   28   89 1  
    97   29   90 1  
    98   30   91 1  
    99   30   92 1  
   100   31   93 1  
   101   31   94 1  
   102   32   95 1  
   103   32   96 1  
   104   33   97 1  
   105   33   98 1  
   106   35   99 1  
   107   39  100 1  
   108   40  101 1  
   109   41  102 1  
   110   42  103 1  
   111   42  104 1  
   112   42  105 1  
   113   44  106 1  
   114   44  107 1  
   115   46  108 1  
   116   47  109 1  
   117   49  110 1  
   118   50  111 1  
   119   53  112 1  
@<TRIPOS>SUBSTRUCTURE
     1 LBM         1

