### 
### Created by X-TOOL on Mon Aug  2 16:15:28 2021
### 

@<TRIPOS>MOLECULE
6o0o_ligand
   96   104     1     0     0
SMALL
GAST_HUCK


@<TRIPOS>ATOM
      1 C1          8.5710   -8.0890   -1.0330 C.3       1 F3Q         0.0097
      2 C2          8.7800   -7.5980   -2.4570 C.3       1 F3Q        -0.0367
      3 C3          7.4390   -5.5210   -2.1230 C.3       1 F3Q         0.0547
      4 C4          7.5980   -6.7810   -2.9400 C.3       1 F3Q        -0.0232
      5 C5          8.0300   -7.0010   -0.1610 C.2       1 F3Q         0.0688
      6 N6          7.5210   -5.8240   -0.6830 N.pl3     1 F3Q        -0.2605
      7 C7          7.1040   -5.0000    0.3560 C.2       1 F3Q         0.0525
      8 C8          7.3500   -5.6660    1.5330 C.2       1 F3Q        -0.0626
      9 C9          7.9300   -6.9330    1.2220 C.2       1 F3Q         0.0467
     10 C10         8.3380   -8.0420    2.1430 C.2       1 F3Q         0.2250
     11 O11         8.0610   -9.1990    1.8520 O.2       1 F3Q        -0.3836
     12 N12         9.0360   -7.7810    3.3480 N.am      1 F3Q        -0.1818
     13 C13         6.4970   -3.6710    0.1380 C.ar      1 F3Q        -0.0086
     14 C14         7.2940   -2.6300   -0.3500 C.ar      1 F3Q        -0.0319
     15 C15         5.1350   -3.4460    0.4240 C.ar      1 F3Q         0.0327
     16 C16         5.3900   -1.1730   -0.2450 C.ar      1 F3Q         0.1260
     17 C17         6.7130   -1.3950   -0.5310 C.ar      1 F3Q         0.1253
     18 O18         7.2970   -0.2380   -0.9940 O.3       1 F3Q        -0.2882
     19 C19         6.2630    0.7480   -0.9810 C.3       1 F3Q         0.1876
     20 O20         5.0620    0.1380   -0.5050 O.3       1 F3Q        -0.2913
     21 C21         4.2420   -4.5600    0.8900 C.2       1 F3Q         0.1951
     22 N22         4.0440   -4.7190    2.2140 N.am      1 F3Q        -0.2551
     23 O23         3.7280   -5.3040    0.0750 O.2       1 F3Q        -0.3926
     24 C24         3.1720   -5.7870    2.7150 C.3       1 F3Q         0.0941
     25 C25         3.9680   -6.7210    3.6170 C.3       1 F3Q         0.0068
     26 C26         4.6660   -3.8690    3.2340 C.3       1 F3Q         0.0649
     27 C27         5.0170   -4.6040    4.5090 C.ar      1 F3Q        -0.0188
     28 C28         4.7000   -5.9590    4.6920 C.ar      1 F3Q        -0.0367
     29 C29         5.0580   -6.5840    5.8840 C.ar      1 F3Q        -0.0667
     30 C30         5.7130   -5.8860    6.8830 C.ar      1 F3Q        -0.0755
     31 C31         6.0190   -4.5580    6.7060 C.ar      1 F3Q        -0.0754
     32 C32         5.6750   -3.9190    5.5280 C.ar      1 F3Q        -0.0649
     33 C33         1.9130   -5.2180    3.3800 C.3       1 F3Q        -0.0062
     34 C34         4.5770   -2.1770    0.2330 C.ar      1 F3Q        -0.0248
     35 N35         0.6470   -5.6690    2.7860 N.4       1 F3Q         0.2402
     36 C36         0.8250   -6.7710    1.8300 C.3       1 F3Q        -0.0077
     37 C37        -0.2790   -6.7560    0.8010 C.3       1 F3Q         0.0878
     38 O38        -0.1960   -5.6090   -0.0480 O.3       1 F3Q        -0.3693
     39 C39         0.3030   -4.4850    0.6770 C.3       1 F3Q         0.0878
     40 C40        -0.0580   -4.5550    2.1390 C.3       1 F3Q        -0.0077
     41 C41         9.5270   -6.4700    3.6850 C.ar      1 F3Q         0.0805
     42 C42         9.2800   -8.8390    4.2940 C.ar      1 F3Q         0.0882
     43 C43         9.0250   -5.8020    4.7930 C.ar      1 F3Q        -0.0431
     44 C44         9.4910   -4.5410    5.1170 C.ar      1 F3Q        -0.0439
     45 C45        10.4630   -3.9360    4.3290 C.ar      1 F3Q         0.0742
     46 C46        10.9700   -4.6040    3.2230 C.ar      1 F3Q        -0.0439
     47 C47        10.5040   -5.8670    2.9040 C.ar      1 F3Q        -0.0431
     48 C48        10.5840   -9.2000    4.6110 C.ar      1 F3Q        -0.0363
     49 C49        10.8110  -10.2260    5.5140 C.ar      1 F3Q        -0.0740
     50 C50         9.7500  -10.8910    6.0970 C.ar      1 F3Q        -0.0760
     51 C51         8.4550  -10.5310    5.7820 C.ar      1 F3Q        -0.0740
     52 C52         8.2120   -9.5050    4.8840 C.ar      1 F3Q        -0.0363
     53 O53        10.9060   -2.6790    4.6340 O.3       1 F3Q        -0.3417
     54 H1          9.5343   -8.4299   -0.6257 H         1 F3Q         0.0479
     55 H2          7.8597   -8.9280   -1.0432 H         1 F3Q         0.0479
     56 H3          8.9093   -8.4665   -3.1196 H         1 F3Q         0.0293
     57 H4          9.6846   -6.9731   -2.4909 H         1 F3Q         0.0293
     58 H5          6.4606   -5.0687   -2.3423 H         1 F3Q         0.0614
     59 H6          8.2380   -4.8136   -2.3898 H         1 F3Q         0.0614
     60 H7          6.6830   -7.3850   -2.8507 H         1 F3Q         0.0294
     61 H8          7.7561   -6.5084   -3.9939 H         1 F3Q         0.0294
     62 H9          7.1384   -5.2908    2.5332 H         1 F3Q         0.0330
     63 H10         8.3411   -2.7914   -0.5795 H         1 F3Q         0.0485
     64 H11         6.1051    1.1338   -1.9989 H         1 F3Q         0.0975
     65 H12         6.5479    1.5759   -0.3152 H         1 F3Q         0.0975
     66 H13         2.8370   -6.3774    1.8494 H         1 F3Q         0.0633
     67 H14         4.7000   -7.2699    3.0064 H         1 F3Q         0.0436
     68 H15         3.2778   -7.4342    4.0913 H         1 F3Q         0.0436
     69 H16         3.9666   -3.0573    3.4828 H         1 F3Q         0.0670
     70 H17         5.5889   -3.4422    2.8143 H         1 F3Q         0.0670
     71 H18         4.8203   -7.6313    6.0310 H         1 F3Q         0.0537
     72 H19         5.9848   -6.3866    7.8053 H         1 F3Q         0.0541
     73 H20         6.5302   -4.0108    7.4898 H         1 F3Q         0.0541
     74 H21         5.9208   -2.8715    5.3963 H         1 F3Q         0.0538
     75 H22         1.9535   -4.1211    3.3080 H         1 F3Q         0.0839
     76 H23         1.9201   -5.5165    4.4387 H         1 F3Q         0.0839
     77 H24         3.5328   -1.9891    0.4553 H         1 F3Q         0.0552
     78 H25         0.0670   -6.0087    3.5371 H         1 F3Q         0.2036
     79 H26         0.8031   -7.7282    2.3716 H         1 F3Q         0.0837
     80 H27         1.7948   -6.6585    1.3232 H         1 F3Q         0.0837
     81 H28        -1.2491   -6.7461    1.3194 H         1 F3Q         0.0613
     82 H29        -0.2026   -7.6629    0.1831 H         1 F3Q         0.0613
     83 H30        -0.1249   -3.5667    0.2485 H         1 F3Q         0.0613
     84 H31         1.3985   -4.4581    0.5820 H         1 F3Q         0.0613
     85 H32         0.2270   -3.6121    2.6285 H         1 F3Q         0.0837
     86 H33        -1.1431   -4.7061    2.2378 H         1 F3Q         0.0837
     87 H34         8.2645   -6.2706    5.4070 H         1 F3Q         0.0498
     88 H35         9.0983   -4.0245    5.9854 H         1 F3Q         0.0511
     89 H36        11.7311   -4.1361    2.6091 H         1 F3Q         0.0511
     90 H37        10.9031   -6.3878    2.0411 H         1 F3Q         0.0498
     91 H38        11.4192   -8.6816    4.1542 H         1 F3Q         0.0518
     92 H39        11.8272  -10.5085    5.7644 H         1 F3Q         0.0580
     93 H40         9.9339  -11.6945    6.8010 H         1 F3Q         0.0497
     94 H41         7.6236  -11.0544    6.2401 H         1 F3Q         0.0580
     95 H42         7.1937   -9.2226    4.6424 H         1 F3Q         0.0518
     96 H43        11.8427   -2.7039    4.7908 H         1 F3Q         0.2438
@<TRIPOS>BOND
     1    1    2 1  
     2    1    5 1  
     3    2    4 1  
     4    4    3 1  
     5    3    6 1  
     6    5    6 1  
     7    5    9 2  
     8    6    7 1  
     9    7    8 2  
    10    7   13 1  
    11    8    9 1  
    12    9   10 1  
    13   10   11 2  
    14   10   12 am 
    15   12   41 1  
    16   12   42 1  
    17   13   14 ar 
    18   13   15 ar 
    19   14   17 ar 
    20   15   21 1  
    21   15   34 ar 
    22   17   16 ar 
    23   16   20 1  
    24   16   34 ar 
    25   17   18 1  
    26   18   19 1  
    27   19   20 1  
    28   21   22 am 
    29   21   23 2  
    30   22   24 1  
    31   22   26 1  
    32   24   25 1  
    33   24   33 1  
    34   25   28 1  
    35   26   27 1  
    36   27   28 ar 
    37   27   32 ar 
    38   28   29 ar 
    39   29   30 ar 
    40   30   31 ar 
    41   31   32 ar 
    42   33   35 1  
    43   35   36 1  
    44   35   40 1  
    45   36   37 1  
    46   37   38 1  
    47   38   39 1  
    48   39   40 1  
    49   41   43 ar 
    50   41   47 ar 
    51   42   48 ar 
    52   42   52 ar 
    53   43   44 ar 
    54   44   45 ar 
    55   45   46 ar 
    56   45   53 1  
    57   46   47 ar 
    58   48   49 ar 
    59   49   50 ar 
    60   50   51 ar 
    61   51   52 ar 
    62    1   54 1  
    63    1   55 1  
    64    2   56 1  
    65    2   57 1  
    66    3   58 1  
    67    3   59 1  
    68    4   60 1  
    69    4   61 1  
    70    8   62 1  
    71   14   63 1  
    72   19   64 1  
    73   19   65 1  
    74   24   66 1  
    75   25   67 1  
    76   25   68 1  
    77   26   69 1  
    78   26   70 1  
    79   29   71 1  
    80   30   72 1  
    81   31   73 1  
    82   32   74 1  
    83   33   75 1  
    84   33   76 1  
    85   34   77 1  
    86   35   78 1  
    87   36   79 1  
    88   36   80 1  
    89   37   81 1  
    90   37   82 1  
    91   39   83 1  
    92   39   84 1  
    93   40   85 1  
    94   40   86 1  
    95   43   87 1  
    96   44   88 1  
    97   46   89 1  
    98   47   90 1  
    99   48   91 1  
   100   49   92 1  
   101   50   93 1  
   102   51   94 1  
   103   52   95 1  
   104   53   96 1  
@<TRIPOS>SUBSTRUCTURE
     1 F3Q         1

