### 
### Created by X-TOOL on Mon Aug  2 16:15:28 2021
### 

@<TRIPOS>MOLECULE
6o0p_ligand
  112   119     1     0     0
SMALL
GAST_HUCK


@<TRIPOS>ATOM
      1 C11       -11.7600    0.6050  -17.5920 C.ar      1 LBM        -0.0567
      2 C12       -12.5240    1.6910  -17.9800 C.ar      1 LBM        -0.0663
      3 C13       -15.3000    3.0650  -16.4550 C.3       1 LBM         0.0019
      4 C14       -15.0980    4.3250  -14.3960 C.3       1 LBM        -0.0098
      5 C15       -15.8580    4.9260  -13.2240 C.3       1 LBM         0.0679
      6 C16       -17.4900    3.1490  -13.4070 C.3       1 LBM         0.0679
      7 C17       -16.7070    2.5670  -14.5640 C.3       1 LBM        -0.0098
      8 C19       -17.7310    3.0880  -10.5270 C.ar      1 LBM        -0.0059
      9 C20       -18.1420    3.2790   -9.2250 C.ar      1 LBM         0.1247
     10 C22       -17.1980    5.4680   -9.2280 C.ar      1 LBM        -0.0602
     11 C23       -16.7760    5.2820  -10.5350 C.ar      1 LBM        -0.0482
     12 C24       -18.3120    4.7120   -7.1300 C.2       1 LBM         0.2105
     13 C25       -17.1980    3.9000   -4.1370 C.ar      1 LBM         0.1080
     14 C26       -15.8750    3.5890   -3.8710 C.ar      1 LBM        -0.0029
     15 C28       -16.5440    1.2990   -3.3210 C.ar      1 LBM         0.0836
     16 C29       -17.8610    1.6680   -3.5970 C.ar      1 LBM        -0.0333
     17 C31       -17.2190   -1.0360   -2.7510 C.3       1 LBM         0.0287
     18 N         -16.0150    3.6260  -15.3080 N.4       1 LBM         0.2518
     19 C         -12.8640    6.7810  -20.2080 C.3       1 LBM        -0.0586
     20 O         -19.3300    4.2080   -6.6650 O.2       1 LBM        -0.3948
     21 C1        -13.4080    6.2510  -18.8810 C.3       1 LBM        -0.0288
     22 C10       -11.0210    0.6560  -16.4270 C.ar      1 LBM         0.0314
     23 C18       -17.0340    4.0870  -11.2040 C.ar      1 LBM         0.0376
     24 C2        -14.8810    5.8600  -19.0370 C.3       1 LBM        -0.0356
     25 C21       -17.8890    4.4680   -8.5440 C.ar      1 LBM         0.0706
     26 C27       -15.5550    2.3100   -3.4750 C.ar      1 LBM         0.2184
     27 C3        -15.4950    5.2960  -17.7580 C.3       1 LBM        -0.0136
     28 C30       -18.1940    2.9490   -3.9980 C.ar      1 LBM        -0.0409
     29 C32       -16.6570   -2.0830   -1.8060 C.3       1 LBM        -0.0171
     30 C33       -17.6330   -3.2320   -1.5880 C.3       1 LBM        -0.0247
     31 C34       -16.9970   -4.2820   -0.7120 C.3       1 LBM         0.0480
     32 C35       -14.8420   -3.7220   -1.4110 C.3       1 LBM         0.0480
     33 C36       -15.3430   -2.6410   -2.3330 C.3       1 LBM        -0.0247
     34 C37       -18.0940    1.3170   -7.8430 C.ar      1 LBM         0.1275
     35 C38       -18.7120    0.1460   -7.4340 C.ar      1 LBM         0.0296
     36 C39       -16.7680   -0.6350   -6.5140 C.ar      1 LBM         0.1269
     37 C4        -14.6560    4.1420  -17.2810 C.2       1 LBM        -0.0126
     38 C40       -16.0460    0.5330   -6.8790 C.ar      1 LBM        -0.0091
     39 C41       -16.7520    1.5240   -7.5640 C.ar      1 LBM        -0.0240
     40 C42       -14.7040    0.3290   -6.4300 C.2       1 LBM        -0.0595
     41 C43       -14.6640   -0.8960   -5.8410 C.2       1 LBM         0.0248
     42 C44       -13.2660    7.3350  -17.8130 C.3       1 LBM        -0.0586
     43 C5        -13.3520    4.0130  -17.6140 C.2       1 LBM        -0.0487
     44 C6        -12.6220    5.0050  -18.4620 C.3       1 LBM        -0.0307
     45 C7        -12.5490    2.8340  -17.1950 C.ar      1 LBM        -0.0459
     46 C8        -11.8080    2.8820  -16.0220 C.ar      1 LBM        -0.0663
     47 C9        -11.0470    1.7920  -15.6430 C.ar      1 LBM        -0.0567
     48 N1        -16.5960    3.8830  -12.5090 N.pl3     1 LBM        -0.2978
     49 N2        -17.4640    5.4630   -6.3360 N.am      1 LBM        -0.1581
     50 N3        -16.2390    0.0240   -2.9190 N.pl3     1 LBM        -0.3158
     51 N4        -14.1370    2.0540   -3.2380 N.2       1 LBM         0.3063
     52 N5        -18.0710   -0.8300   -6.7770 N.ar      1 LBM        -0.2919
     53 N6        -15.9070   -1.4860   -5.8850 N.pl3     1 LBM        -0.2695
     54 O1        -18.9680    5.7810   -4.3940 O.2       1 LBM        -0.1472
     55 O2        -16.5830    6.4200   -4.2360 O.2       1 LBM        -0.1472
     56 O3        -15.7930   -4.7740   -1.2900 O.3       1 LBM        -0.3797
     57 O4        -13.8040    0.9480   -2.8420 O.2       1 LBM         0.1710
     58 O5        -13.3440    2.9610   -3.4470 O.2       1 LBM         0.1710
     59 O6        -18.8230    2.2740   -8.5490 O.3       1 LBM        -0.2575
     60 S         -17.5940    5.5210   -4.7020 S.o2      1 LBM         0.0855
     61 CL        -10.0540   -0.7110  -15.9490 Cl        1 LBM        -0.0781
     62 H1        -11.7415   -0.2890  -18.2047 H         1 LBM         0.0600
     63 H2        -13.1021    1.6487  -18.8960 H         1 LBM         0.0546
     64 H3        -16.0118    2.5097  -17.0835 H         1 LBM         0.1006
     65 H4        -14.5206    2.3797  -16.0904 H         1 LBM         0.1006
     66 H5        -14.3536    3.6103  -14.0151 H         1 LBM         0.0834
     67 H6        -14.5866    5.1293  -14.9451 H         1 LBM         0.0834
     68 H7        -16.5662    5.6796  -13.5988 H         1 LBM         0.0569
     69 H8        -15.1451    5.4031  -12.5354 H         1 LBM         0.0569
     70 H9        -17.9751    2.3338  -12.8501 H         1 LBM         0.0569
     71 H10       -18.2572    3.8347  -13.7959 H         1 LBM         0.0569
     72 H11       -17.3983    2.0433  -15.2406 H         1 LBM         0.0834
     73 H12       -15.9644    1.8547  -14.1753 H         1 LBM         0.0834
     74 H13       -17.9519    2.1527  -11.0285 H         1 LBM         0.0455
     75 H14       -16.9874    6.4069   -8.7288 H         1 LBM         0.0612
     76 H15       -16.2391    6.0751  -11.0427 H         1 LBM         0.0448
     77 H16       -15.1022    4.3422   -3.9732 H         1 LBM         0.0677
     78 H17       -18.6468    0.9284   -3.4940 H         1 LBM         0.0533
     79 H18       -18.1455   -0.6184   -2.3300 H         1 LBM         0.0519
     80 H19       -17.4345   -1.4970   -3.7262 H         1 LBM         0.0519
     81 H20       -16.6973    4.2848  -15.6493 H         1 LBM         0.2052
     82 H21       -13.4308    7.6755  -20.5055 H         1 LBM         0.0236
     83 H22       -12.9680    6.0067  -20.9824 H         1 LBM         0.0236
     84 H23       -11.8019    7.0421  -20.0908 H         1 LBM         0.0236
     85 H24       -14.9582    5.0982  -19.8267 H         1 LBM         0.0298
     86 H25       -15.4500    6.7537  -19.3327 H         1 LBM         0.0298
     87 H26       -16.5185    4.9485  -17.9620 H         1 LBM         0.0453
     88 H27       -15.5205    6.0780  -16.9849 H         1 LBM         0.0453
     89 H28       -19.2271    3.2063   -4.2019 H         1 LBM         0.0647
     90 H29       -16.4682   -1.5995   -0.8362 H         1 LBM         0.0321
     91 H30       -17.8964   -3.6769   -2.5589 H         1 LBM         0.0291
     92 H31       -18.5425   -2.8513   -1.1003 H         1 LBM         0.0291
     93 H32       -17.7012   -5.1174   -0.5843 H         1 LBM         0.0560
     94 H33       -16.7696   -3.8407    0.2696 H         1 LBM         0.0560
     95 H34       -14.6570   -3.2890   -0.4169 H         1 LBM         0.0560
     96 H35       -13.9034   -4.1308   -1.8134 H         1 LBM         0.0560
     97 H36       -14.5985   -1.8330   -2.3871 H         1 LBM         0.0291
     98 H37       -15.5012   -3.0616   -3.3370 H         1 LBM         0.0291
     99 H38       -19.7646    0.0133   -7.6563 H         1 LBM         0.0705
    100 H39       -16.2593    2.4391   -7.8722 H         1 LBM         0.0578
    101 H40       -13.8718    1.0229   -6.5390 H         1 LBM         0.0292
    102 H41       -13.7764   -1.3456   -5.3982 H         1 LBM         0.0958
    103 H42       -12.2060    7.6094  -17.7078 H         1 LBM         0.0236
    104 H43       -13.6434    6.9549  -16.8523 H         1 LBM         0.0236
    105 H44       -13.8463    8.2209  -18.1103 H         1 LBM         0.0236
    106 H45       -11.7382    5.3402  -17.8993 H         1 LBM         0.0349
    107 H46       -12.2994    4.4889  -19.3782 H         1 LBM         0.0349
    108 H47       -11.8261    3.7727  -15.4044 H         1 LBM         0.0546
    109 H48       -10.4686    1.8294  -14.7270 H         1 LBM         0.0600
    110 H49       -16.7403    5.9936   -6.7774 H         1 LBM         0.2129
    111 H50       -15.2521   -0.1966   -2.7236 H         1 LBM         0.1789
    112 H51       -16.1466   -2.4136   -5.5068 H         1 LBM         0.2285
@<TRIPOS>BOND
     1    2    1 ar 
     2    1   22 ar 
     3   45    2 ar 
     4   18    3 1  
     5    3   37 1  
     6    5    4 1  
     7    4   18 1  
     8   48    5 1  
     9    6    7 1  
    10   48    6 1  
    11    7   18 1  
    12    9    8 ar 
    13    8   23 ar 
    14   25    9 ar 
    15    9   59 1  
    16   10   11 ar 
    17   25   10 ar 
    18   11   23 ar 
    19   12   20 2  
    20   12   25 1  
    21   49   12 am 
    22   13   14 ar 
    23   13   28 ar 
    24   60   13 1  
    25   14   26 ar 
    26   16   15 ar 
    27   26   15 ar 
    28   15   50 1  
    29   28   16 ar 
    30   17   29 1  
    31   50   17 1  
    32   21   19 1  
    33   24   21 1  
    34   21   42 1  
    35   44   21 1  
    36   47   22 ar 
    37   22   61 1  
    38   23   48 1  
    39   27   24 1  
    40   26   51 1  
    41   37   27 1  
    42   29   30 1  
    43   29   33 1  
    44   30   31 1  
    45   31   56 1  
    46   33   32 1  
    47   32   56 1  
    48   34   35 ar 
    49   34   39 ar 
    50   59   34 1  
    51   35   52 ar 
    52   38   36 ar 
    53   52   36 ar 
    54   36   53 1  
    55   37   43 2  
    56   39   38 ar 
    57   38   40 1  
    58   40   41 2  
    59   41   53 1  
    60   43   44 1  
    61   43   45 1  
    62   45   46 ar 
    63   46   47 ar 
    64   49   60 am 
    65   51   57 2  
    66   51   58 2  
    67   60   54 2  
    68   60   55 2  
    69    1   62 1  
    70    2   63 1  
    71    3   64 1  
    72    3   65 1  
    73    4   66 1  
    74    4   67 1  
    75    5   68 1  
    76    5   69 1  
    77    6   70 1  
    78    6   71 1  
    79    7   72 1  
    80    7   73 1  
    81    8   74 1  
    82   10   75 1  
    83   11   76 1  
    84   14   77 1  
    85   16   78 1  
    86   17   79 1  
    87   17   80 1  
    88   18   81 1  
    89   19   82 1  
    90   19   83 1  
    91   19   84 1  
    92   24   85 1  
    93   24   86 1  
    94   27   87 1  
    95   27   88 1  
    96   28   89 1  
    97   29   90 1  
    98   30   91 1  
    99   30   92 1  
   100   31   93 1  
   101   31   94 1  
   102   32   95 1  
   103   32   96 1  
   104   33   97 1  
   105   33   98 1  
   106   35   99 1  
   107   39  100 1  
   108   40  101 1  
   109   41  102 1  
   110   42  103 1  
   111   42  104 1  
   112   42  105 1  
   113   44  106 1  
   114   44  107 1  
   115   46  108 1  
   116   47  109 1  
   117   49  110 1  
   118   50  111 1  
   119   53  112 1  
@<TRIPOS>SUBSTRUCTURE
     1 LBM         1

