### 
### Created by X-TOOL on Mon Aug  2 16:15:29 2021
### 

@<TRIPOS>MOLECULE
6o1g_ligand
   56    59     1     0     0
SMALL
GAST_HUCK


@<TRIPOS>ATOM
      1 C01       -48.2790   19.2130   36.5760 C.3       1 MOL        -0.0311
      2 C02       -48.6330   17.7250   36.3990 C.ar      1 MOL        -0.0412
      3 C04       -49.7150   15.7260   37.3290 C.ar      1 MOL         0.0843
      4 N05       -50.4750   15.0300   38.3980 N.pl3     1 MOL        -0.3290
      5 C07       -48.6610   15.6330   35.2340 C.ar      1 MOL         0.0059
      6 C09       -48.2860   16.9980   35.3020 C.ar      1 MOL        -0.0050
      7 C10       -47.4670   17.6470   34.1070 C.3       1 MOL         0.0584
      8 C12       -47.9540   19.3530   32.4490 C.2       1 MOL         0.1859
      9 C14       -48.8510   19.9450   31.3180 C.2       1 MOL         0.0651
     10 C15       -48.8600   21.2530   30.8880 C.2       1 MOL         0.0141
     11 C18       -51.3300   19.8130   28.7150 C.3       1 MOL         0.1038
     12 C19       -52.6550   19.9620   29.4740 C.ar      1 MOL        -0.0170
     13 C20       -53.6300   18.8770   29.5110 C.ar      1 MOL        -0.0639
     14 C22       -55.0380   20.2730   30.8970 C.ar      1 MOL        -0.0174
     15 C23       -56.3510   20.4630   31.6800 C.3       1 MOL         0.1014
     16 C26       -58.8420   18.1360   30.3310 C.2       1 MOL        -0.0495
     17 C27       -58.9600   19.1940   29.4790 C.2       1 MOL        -0.0073
     18 C29       -54.1020   21.2890   30.8610 C.ar      1 MOL        -0.0639
     19 C31       -49.7850   19.2440   30.5350 C.2       1 MOL         0.0775
     20 C03       -49.3690   17.0810   37.4540 C.ar      1 MOL        -0.0299
     21 N06       -49.3710   15.0530   36.2620 N.ar      1 MOL        -0.3037
     22 C08       -48.3220   14.7520   34.0470 C.3       1 MOL        -0.0236
     23 N11       -48.3270   18.1820   33.0730 N.am      1 MOL        -0.2825
     24 O13       -46.8820   19.9330   32.7920 O.2       1 MOL        -0.3992
     25 N16       -49.7650   21.3480   29.9040 N.2       1 MOL        -0.2101
     26 N17       -50.3070   20.1040   29.6930 N.pl3     1 MOL        -0.1891
     27 C21       -54.7890   19.0400   30.1960 C.ar      1 MOL        -0.0639
     28 N24       -57.4070   19.7110   30.9620 N.pl3     1 MOL        -0.1979
     29 C25       -57.8390   18.5020   31.2780 C.2       1 MOL         0.0515
     30 N28       -58.0760   20.1570   29.8690 N.2       1 MOL        -0.2171
     31 C30       -52.8940   21.1270   30.1410 C.ar      1 MOL        -0.0639
     32 H1        -48.6685   19.5703   37.5407 H         1 MOL         0.0397
     33 H2        -48.7296   19.7967   35.7598 H         1 MOL         0.0397
     34 H3        -47.1860   19.3350   36.5541 H         1 MOL         0.0397
     35 H4        -50.7558   15.5415   39.2467 H         1 MOL         0.1742
     36 H5        -50.7214   14.0357   38.2908 H         1 MOL         0.1742
     37 H6        -46.8193   16.8764   33.6635 H         1 MOL         0.0641
     38 H7        -46.8461   18.4624   34.5065 H         1 MOL         0.0641
     39 H8        -48.2441   22.0627   31.2766 H         1 MOL         0.0690
     40 H9        -51.2804   20.5263   27.8791 H         1 MOL         0.0797
     41 H10       -51.2174   18.7887   28.3302 H         1 MOL         0.0797
     42 H11       -53.4290   17.9458   28.9938 H         1 MOL         0.0541
     43 H12       -56.6124   21.5306   31.7226 H         1 MOL         0.0793
     44 H13       -56.2395   20.0717   32.7020 H         1 MOL         0.0793
     45 H14       -59.3999   17.2014   30.2960 H         1 MOL         0.0339
     46 H15       -59.6425   19.2590   28.6329 H         1 MOL         0.0650
     47 H16       -54.2942   22.2167   31.3879 H         1 MOL         0.0541
     48 H17       -50.0293   18.1856   30.6129 H         1 MOL         0.1094
     49 H18       -49.6544   17.6379   38.3392 H         1 MOL         0.0468
     50 H19       -48.7135   13.7385   34.2190 H         1 MOL         0.0400
     51 H20       -47.2299   14.7071   33.9237 H         1 MOL         0.0400
     52 H21       -48.7768   15.1713   33.1374 H         1 MOL         0.0400
     53 H22       -49.1723   17.7129   32.8172 H         1 MOL         0.1857
     54 H23       -55.5255   18.2448   30.2158 H         1 MOL         0.0541
     55 H24       -57.4915   17.8940   32.1120 H         1 MOL         0.0986
     56 H25       -52.1618   21.9260   30.1200 H         1 MOL         0.0541
@<TRIPOS>BOND
     1    2    1 1  
     2    6    2 ar 
     3    2   20 ar 
     4    3    4 1  
     5   20    3 ar 
     6   21    3 ar 
     7    6    5 ar 
     8    5   21 ar 
     9    5   22 1  
    10    7    6 1  
    11   23    7 1  
    12    9    8 1  
    13    8   23 am 
    14    8   24 2  
    15   10    9 1  
    16   19    9 2  
    17   25   10 2  
    18   12   11 1  
    19   11   26 1  
    20   13   12 ar 
    21   31   12 ar 
    22   27   13 ar 
    23   15   14 1  
    24   14   18 ar 
    25   14   27 ar 
    26   28   15 1  
    27   16   17 1  
    28   29   16 2  
    29   17   30 2  
    30   18   31 ar 
    31   26   19 1  
    32   26   25 1  
    33   28   29 1  
    34   28   30 1  
    35    1   32 1  
    36    1   33 1  
    37    1   34 1  
    38    4   35 1  
    39    4   36 1  
    40    7   37 1  
    41    7   38 1  
    42   10   39 1  
    43   11   40 1  
    44   11   41 1  
    45   13   42 1  
    46   15   43 1  
    47   15   44 1  
    48   16   45 1  
    49   17   46 1  
    50   18   47 1  
    51   19   48 1  
    52   20   49 1  
    53   22   50 1  
    54   22   51 1  
    55   22   52 1  
    56   23   53 1  
    57   27   54 1  
    58   29   55 1  
    59   31   56 1  
@<TRIPOS>SUBSTRUCTURE
     1 MOL         1

