### 
### Created by X-TOOL on Mon Aug  2 16:11:05 2021
### 

@<TRIPOS>MOLECULE
6o2p_ligand
   57    59     1     0     0
SMALL
GAST_HUCK


@<TRIPOS>ATOM
      1 O24       151.4550  183.2430  172.4030 O.2       1 VX7        -0.3803
      2 C23       151.6980  182.2990  171.6530 C.2       1 VX7         0.1706
      3 C22       152.0820  181.0650  172.1930 C.ar      1 VX7         0.0509
      4 C21       152.1890  180.8880  173.5820 C.ar      1 VX7        -0.0452
      5 C20       152.5680  179.6570  174.1160 C.ar      1 VX7        -0.0594
      6 C19       152.8450  178.5890  173.2680 C.ar      1 VX7        -0.0598
      7 C18       152.7440  178.7560  171.8850 C.ar      1 VX7        -0.0425
      8 C17       152.3630  179.9870  171.3480 C.ar      1 VX7         0.0422
      9 N16       152.2690  180.1340  170.0160 N.2       1 VX7        -0.2874
     10 C15       151.8850  181.3650  169.4490 C.2       1 VX7         0.0535
     11 C14       151.6030  182.4770  170.2590 C.3       1 VX7         0.1918
     12 C12       151.1990  183.7010  169.6710 C.2       1 VX7         0.2702
     13 O13       150.8850  183.7240  168.4790 O.2       1 VX7        -0.3616
     14 N11       151.0930  184.7940  170.4960 N.am      1 VX7        -0.1931
     15 C10       150.6640  185.9820  170.0180 C.ar      1 VX7         0.1187
     16 C09       151.4290  186.6310  169.0560 C.ar      1 VX7         0.0407
     17 C08       151.0350  187.8560  168.5400 C.ar      1 VX7         0.1286
     18 O25       151.8340  188.4270  167.5910 O.3       1 VX7        -0.3014
     19 C07       149.8520  188.5030  168.9770 C.ar      1 VX7        -0.0027
     20 C26       149.4310  189.7880  168.4450 C.3       1 VX7        -0.0542
     21 C28       150.5160  190.8550  168.7550 C.3       1 VX7        -0.0940
     22 C29       148.1100  190.3380  169.0430 C.3       1 VX7        -0.0940
     23 C27       149.1850  189.6650  166.9170 C.3       1 VX7        -0.0940
     24 C06       149.1060  187.8260  169.9590 C.ar      1 VX7        -0.0235
     25 C05       149.4620  186.5750  170.5090 C.ar      1 VX7        -0.0036
     26 C02       148.6240  185.9560  171.5230 C.3       1 VX7        -0.0541
     27 C03       147.2900  186.6930  171.8010 C.3       1 VX7        -0.0938
     28 C04       148.2050  184.5290  171.0760 C.3       1 VX7        -0.0938
     29 C01       149.3800  185.9270  172.8790 C.3       1 VX7        -0.0938
     30 H1        151.9746  181.7174  174.2462 H         1 VX7         0.0662
     31 H2        152.6467  179.5321  175.1899 H         1 VX7         0.0601
     32 H3        153.1384  177.6301  173.6797 H         1 VX7         0.0646
     33 H4        152.9628  177.9247  171.2246 H         1 VX7         0.0609
     34 H5        151.8057  181.4557  168.3667 H         1 VX7         0.1267
     35 H6        152.6530  182.8021  170.2166 H         1 VX7         0.1056
     36 H7        151.3364  184.7091  171.4622 H         1 VX7         0.2581
     37 H8        152.3464  186.1730  168.7043 H         1 VX7         0.0553
     38 H9        151.4586  189.2565  167.3199 H         1 VX7         0.2685
     39 H10       150.1985  191.8283  168.3528 H         1 VX7         0.0104
     40 H11       151.4666  190.5578  168.2881 H         1 VX7         0.0104
     41 H12       150.6514  190.9347  169.8437 H         1 VX7         0.0104
     42 H13       147.2963  189.6220  168.8549 H         1 VX7         0.0104
     43 H14       147.8670  191.3014  168.5711 H         1 VX7         0.0104
     44 H15       148.2296  190.4806  170.1271 H         1 VX7         0.0104
     45 H16       150.0916  189.2770  166.4297 H         1 VX7         0.0104
     46 H17       148.9419  190.6550  166.5039 H         1 VX7         0.0104
     47 H18       148.3473  188.9758  166.7348 H         1 VX7         0.0104
     48 H19       148.1973  188.2960  170.3174 H         1 VX7         0.1111
     49 H20       146.7280  186.1535  172.5776 H         1 VX7         0.0104
     50 H21       146.6936  186.7326  170.8776 H         1 VX7         0.0104
     51 H22       147.5012  187.7161  172.1453 H         1 VX7         0.0104
     52 H23       149.1043  183.9345  170.8571 H         1 VX7         0.0104
     53 H24       147.5810  184.5961  170.1726 H         1 VX7         0.0104
     54 H25       147.6330  184.0455  171.8816 H         1 VX7         0.0104
     55 H26       149.6608  186.9516  173.1642 H         1 VX7         0.0104
     56 H27       150.2869  185.3124  172.7802 H         1 VX7         0.0104
     57 H28       148.7279  185.4966  173.6533 H         1 VX7         0.0104
@<TRIPOS>BOND
     1    1    2 2  
     2    2    3 1  
     3    2   11 1  
     4    3    4 ar 
     5    3    8 ar 
     6    4    5 ar 
     7    5    6 ar 
     8    6    7 ar 
     9    7    8 ar 
    10    8    9 1  
    11    9   10 2  
    12   10   11 1  
    13   11   12 1  
    14   12   13 2  
    15   12   14 am 
    16   14   15 1  
    17   15   16 ar 
    18   15   25 ar 
    19   16   17 ar 
    20   17   18 1  
    21   17   19 ar 
    22   19   20 1  
    23   19   24 ar 
    24   20   21 1  
    25   20   22 1  
    26   20   23 1  
    27   24   25 ar 
    28   25   26 1  
    29   26   27 1  
    30   26   28 1  
    31   26   29 1  
    32    4   30 1  
    33    5   31 1  
    34    6   32 1  
    35    7   33 1  
    36   10   34 1  
    37   11   35 1  
    38   14   36 1  
    39   16   37 1  
    40   18   38 1  
    41   21   39 1  
    42   21   40 1  
    43   21   41 1  
    44   22   42 1  
    45   22   43 1  
    46   22   44 1  
    47   23   45 1  
    48   23   46 1  
    49   23   47 1  
    50   24   48 1  
    51   27   49 1  
    52   27   50 1  
    53   27   51 1  
    54   28   52 1  
    55   28   53 1  
    56   28   54 1  
    57   29   55 1  
    58   29   56 1  
    59   29   57 1  
@<TRIPOS>SUBSTRUCTURE
     1 VX7         1

