### 
### Created by X-TOOL on Mon Aug  2 16:17:06 2021
### 

@<TRIPOS>MOLECULE
6o3x_ligand
   87    88     1     0     0
SMALL
GAST_HUCK


@<TRIPOS>ATOM
      1 N          62.0640  117.9510   14.4860 N.4       1 ASP         0.2391
      2 CA         60.7320  117.7270   13.9280 C.3       1 ASP         0.0764
      3 C          60.1930  116.3960   14.4200 C.2       1 ASP         0.2285
      4 O          59.6130  115.6180   13.6630 O.2       1 ASP        -0.3906
      5 CB         60.7630  117.7530   12.3990 C.3       1 ASP         0.0607
      6 CG         59.4240  118.1340   11.7990 C.2       1 ASP         0.0425
      7 OD1        58.5480  118.6000   12.5600 O.co2     1 ASP        -0.5686
      8 OD2        59.2480  117.9690   10.5710 O.co2     1 ASP        -0.5686
      9 N          60.4140  116.1270   15.6980 N.am      1 ASP        -0.2594
     10 CA         59.9530  114.8770   16.2640 C.3       1 ASP         0.1424
     11 C          58.4310  114.8680   16.3500 C.2       1 ASP         0.2057
     12 O          57.7540  115.8720   16.1090 O.2       1 ASP        -0.3943
     13 CB         60.5710  114.6530   17.6440 C.3       1 ASP         0.0406
     14 CG         61.7690  113.7220   17.6010 C.2       1 ASP         0.0393
     15 OD1        61.7200  112.7280   16.8420 O.co2     1 ASP        -0.5688
     16 OD2        62.7560  113.9840   18.3200 O.co2     1 ASP        -0.5688
     17 N          57.8950  113.6930   16.6540 N.am      1 ASP        -0.2620
     18 CA         56.5100  113.5290   17.0690 C.3       1 ASP         0.1390
     19 C          56.5280  112.8630   18.4330 C.2       1 ASP         0.2058
     20 O          57.0960  111.7770   18.5920 O.2       1 ASP        -0.3942
     21 CB         55.7210  112.6820   16.0730 C.3       1 ASP         0.0163
     22 CG         54.2620  112.4520   16.4230 C.ar      1 ASP        -0.0493
     23 CD1        53.2810  113.3570   16.0340 C.ar      1 ASP        -0.0685
     24 CD2        53.8610  111.3120   17.1070 C.ar      1 ASP        -0.0685
     25 CE1        51.9440  113.1380   16.3350 C.ar      1 ASP        -0.0398
     26 CE2        52.5280  111.0820   17.4060 C.ar      1 ASP        -0.0398
     27 CZ         51.5740  112.0010   17.0180 C.ar      1 ASP         0.0805
     28 OH         50.2480  111.7760   17.3170 O.3       1 ASP        -0.3376
     29 N          55.9370  113.5200   19.4140 N.am      1 ASP        -0.2612
     30 CA         55.6920  112.8870   20.7040 C.3       1 ASP         0.1567
     31 C          54.1930  112.8830   20.9240 C.2       1 ASP         0.2090
     32 O          53.5800  113.9670   20.9990 O.2       1 ASP        -0.3941
     33 CB         56.4190  113.6090   21.8380 C.3       1 ASP         0.0924
     34 OG1        57.8160  113.2880   21.7820 O.3       1 ASP        -0.3874
     35 CG2        55.8570  113.1890   23.1970 C.3       1 ASP        -0.0346
     36 N          53.5540  111.7200   20.9790 N.am      1 ASP        -0.2498
     37 CA         52.1150  111.6880   21.2670 C.3       1 ASP         0.1337
     38 C          51.8430  112.1990   22.6740 C.2       1 ASP         0.2036
     39 O          52.5490  111.8510   23.6230 O.2       1 ASP        -0.3944
     40 CB         51.7460  110.2050   21.1290 C.3       1 ASP        -0.0104
     41 CG         52.9540  109.5200   20.5510 C.3       1 ASP        -0.0281
     42 CD         54.1410  110.3740   20.8420 C.3       1 ASP         0.0369
     43 N          50.8160  113.0360   22.7990 N.am      1 ASP        -0.2672
     44 CA         50.4840  113.6530   24.0820 C.3       1 ASP         0.1173
     45 C          49.3270  112.9320   24.7590 C.2       1 ASP         0.0623
     46 O          48.2060  112.9390   24.2610 O.co2     1 ASP        -0.5665
     47 CB         50.1420  115.1340   23.8930 C.3       1 ASP         0.0789
     48 OG         51.1640  115.8120   23.1810 O.3       1 ASP        -0.3910
     49 OXT        49.4940  112.3310   25.8150 O.co2     1 ASP        -0.5665
     50 H1         62.4210  118.8350   14.1587 H         1 ASP         0.2016
     51 H2         62.6806  117.2099   14.1917 H         1 ASP         0.2016
     52 H3         62.0091  117.9627   15.4924 H         1 ASP         0.2016
     53 H4         60.0657  118.5298   14.2767 H         1 ASP         0.1117
     54 H5         61.0415  116.7532   12.0345 H         1 ASP         0.0512
     55 H6         61.5167  118.4851   12.0736 H         1 ASP         0.0512
     56 H7         60.8991  116.7871   16.2715 H         1 ASP         0.1886
     57 H8         60.2702  114.0565   15.6036 H         1 ASP         0.0819
     58 H9         59.8083  114.2159   18.3052 H         1 ASP         0.0478
     59 H10        60.8934  115.6240   18.0478 H         1 ASP         0.0478
     60 H11        58.4723  112.8786   16.5949 H         1 ASP         0.1885
     61 H12        56.0333  114.5172   17.1471 H         1 ASP         0.0821
     62 H13        56.2110  111.6999   16.0003 H         1 ASP         0.0453
     63 H14        55.7598  113.1844   15.0952 H         1 ASP         0.0453
     64 H15        53.5651  114.2484   15.4865 H         1 ASP         0.0530
     65 H16        54.6064  110.5870   17.4133 H         1 ASP         0.0530
     66 H17        51.1934  113.8596   16.0334 H         1 ASP         0.0525
     67 H18        52.2360  110.1858   17.9414 H         1 ASP         0.0525
     68 H19        50.1429  111.7150   18.2591 H         1 ASP         0.2458
     69 H20        55.6527  114.4678   19.2696 H         1 ASP         0.1884
     70 H21        56.0541  111.8489   20.6690 H         1 ASP         0.0826
     71 H22        56.2887  114.6943   21.7154 H         1 ASP         0.0639
     72 H23        57.9282  112.3494   21.8771 H         1 ASP         0.2101
     73 H24        56.3945  113.7204   23.9961 H         1 ASP         0.0257
     74 H25        55.9851  112.1043   23.3275 H         1 ASP         0.0257
     75 H26        54.7872  113.4402   23.2449 H         1 ASP         0.0257
     76 H27        51.5556  112.2974   20.5420 H         1 ASP         0.0802
     77 H28        50.8839  110.0883   20.4559 H         1 ASP         0.0313
     78 H29        51.5024  109.7801   22.1139 H         1 ASP         0.0313
     79 H30        52.8341  109.4029   19.4639 H         1 ASP         0.0287
     80 H31        53.0815  108.5306   21.0146 H         1 ASP         0.0287
     81 H32        54.6346  110.0610   21.7738 H         1 ASP         0.0524
     82 H33        54.8649  110.3404   20.0144 H         1 ASP         0.0524
     83 H34        50.2583  113.2479   21.9965 H         1 ASP         0.1876
     84 H35        51.3655  113.5806   24.7360 H         1 ASP         0.0749
     85 H36        50.0219  115.6029   24.8808 H         1 ASP         0.0599
     86 H37        49.1997  115.2153   23.3314 H         1 ASP         0.0599
     87 H38        50.9248  116.7258   23.0793 H         1 ASP         0.2096
@<TRIPOS>BOND
     1    1    2 1  
     2    2    3 1  
     3    2    5 1  
     4    3    4 2  
     5    3    9 am 
     6    5    6 1  
     7    6    7 ar 
     8    6    8 ar 
     9    9   10 1  
    10   10   11 1  
    11   10   13 1  
    12   11   12 2  
    13   11   17 am 
    14   13   14 1  
    15   14   15 ar 
    16   14   16 ar 
    17   17   18 1  
    18   18   19 1  
    19   18   21 1  
    20   19   20 2  
    21   19   29 am 
    22   21   22 1  
    23   22   23 ar 
    24   22   24 ar 
    25   23   25 ar 
    26   24   26 ar 
    27   25   27 ar 
    28   26   27 ar 
    29   27   28 1  
    30   29   30 1  
    31   30   31 1  
    32   30   33 1  
    33   31   32 2  
    34   31   36 am 
    35   33   34 1  
    36   33   35 1  
    37   36   37 1  
    38   36   42 1  
    39   37   38 1  
    40   37   40 1  
    41   38   39 2  
    42   38   43 am 
    43   40   41 1  
    44   41   42 1  
    45   43   44 1  
    46   44   45 1  
    47   44   47 1  
    48   45   46 ar 
    49   45   49 ar 
    50   47   48 1  
    51    1   50 1  
    52    1   51 1  
    53    1   52 1  
    54    2   53 1  
    55    5   54 1  
    56    5   55 1  
    57    9   56 1  
    58   10   57 1  
    59   13   58 1  
    60   13   59 1  
    61   17   60 1  
    62   18   61 1  
    63   21   62 1  
    64   21   63 1  
    65   23   64 1  
    66   24   65 1  
    67   25   66 1  
    68   26   67 1  
    69   28   68 1  
    70   29   69 1  
    71   30   70 1  
    72   33   71 1  
    73   34   72 1  
    74   35   73 1  
    75   35   74 1  
    76   35   75 1  
    77   37   76 1  
    78   40   77 1  
    79   40   78 1  
    80   41   79 1  
    81   41   80 1  
    82   42   81 1  
    83   42   82 1  
    84   43   83 1  
    85   44   84 1  
    86   47   85 1  
    87   47   86 1  
    88   48   87 1  
@<TRIPOS>SUBSTRUCTURE
     1 ASP         1

