### 
### Created by X-TOOL on Mon Aug  2 16:15:29 2021
### 

@<TRIPOS>MOLECULE
6o48_ligand
  130   130     1     0     0
SMALL
GAST_HUCK


@<TRIPOS>ATOM
      1 N          23.9270   27.9190   17.3200 N.4       1 MOL         0.2379
      2 CA         23.1960   26.7410   17.7510 C.3       1 MOL         0.0651
      3 C          21.7110   26.8760   17.4770 C.2       1 MOL         0.2267
      4 O          21.0830   27.8850   17.7670 O.2       1 MOL        -0.3907
      5 CB         23.4370   26.4970   19.2470 C.3       1 MOL         0.0110
      6 CG         24.8480   25.9870   19.5600 C.3       1 MOL        -0.0125
      7 CD         24.7470   24.7930   20.4930 C.3       1 MOL         0.0629
      8 NE         25.9120   23.9760   20.6700 N.pl3     1 MOL        -0.2723
      9 CZ         26.9760   23.7400   19.9150 C.cat     1 MOL         0.2882
     10 NH1        27.1680   24.2980   18.7220 N.pl3     1 MOL        -0.2849
     11 NH2        27.9110   22.9050   20.3850 N.pl3     1 MOL        -0.2849
     12 N1         21.1260   25.8440   16.9180 N.am      1 MOL        -0.2608
     13 CA1        19.7330   25.8520   16.5070 C.3       1 MOL         0.1332
     14 C1         19.0500   24.6660   17.1770 C.2       1 MOL         0.2023
     15 O1         19.2900   23.5160   16.7880 O.2       1 MOL        -0.3945
     16 CB1        19.6400   25.7760   14.9750 C.3       1 MOL        -0.0063
     17 CG1        18.2030   25.7440   14.4790 C.3       1 MOL        -0.0584
     18 CG2        20.3870   26.9440   14.3470 C.3       1 MOL        -0.0584
     19 N2         18.2180   24.9050   18.1790 N.am      1 MOL        -0.2769
     20 CA2        17.6600   23.7930   18.9240 C.3       1 MOL         0.0820
     21 C2         16.1470   23.6720   18.7520 C.3       1 MOL        -0.0079
     22 CB2        18.0140   23.8440   20.4130 C.3       1 MOL        -0.0226
     23 CG3        19.5430   23.6030   20.5540 C.3       1 MOL        -0.0445
     24 CD1        20.1290   24.7830   21.2870 C.3       1 MOL        -0.0626
     25 CD2        19.7710   22.2440   21.1710 C.3       1 MOL        -0.0626
     26 N3         15.8460   23.5540   17.3590 N.4       1 MOL         0.2492
     27 CA3        14.6140   22.8690   17.0080 C.3       1 MOL         0.0763
     28 C3         14.6400   21.4190   17.4730 C.2       1 MOL         0.2289
     29 O2         15.6200   20.6350   17.5220 O.2       1 MOL        -0.3905
     30 CB3        14.4240   23.0690   15.4990 C.3       1 MOL         0.0416
     31 CG4        13.5890   21.9900   14.8520 C.ar      1 MOL        -0.0353
     32 CD11       12.2220   22.0330   15.0290 C.ar      1 MOL        -0.0600
     33 CD21       14.1710   20.9860   14.1100 C.ar      1 MOL        -0.0600
     34 CE1        11.3890   21.0790   14.4850 C.ar      1 MOL        -0.0686
     35 CE2        13.3490   20.0320   13.5610 C.ar      1 MOL        -0.0686
     36 CZ1        11.9720   20.0570   13.7400 C.ar      1 MOL        -0.0687
     37 N4         13.4540   20.9740   17.8690 N.am      1 MOL        -0.2608
     38 CA4        13.3120   19.5880   18.3050 C.3       1 MOL         0.1326
     39 C4         11.8930   19.0910   18.0450 C.2       1 MOL         0.2040
     40 O3         10.8990   19.7490   18.3390 O.2       1 MOL        -0.3944
     41 CB4        13.6610   19.4570   19.7930 C.3       1 MOL        -0.0008
     42 CG5        13.6360   18.0570   20.4090 C.3       1 MOL         0.0044
     43 CD3        12.2780   17.5550   20.8750 C.2       1 MOL         0.0350
     44 OE1        11.4300   18.4710   21.0230 O.co2     1 MOL        -0.5690
     45 OE2        11.9520   16.3550   20.9980 O.co2     1 MOL        -0.5690
     46 N5         11.8070   17.8290   17.6170 N.am      1 MOL        -0.2640
     47 CA5        10.5060   17.1480   17.4990 C.3       1 MOL         0.1282
     48 C5         10.6420   15.6330   17.5040 C.2       1 MOL         0.2036
     49 O4         11.6310   15.0230   17.0870 O.2       1 MOL        -0.3944
     50 CB5         9.8590   17.6340   16.2210 C.3       1 MOL        -0.0244
     51 N6          9.6180   14.9180   17.9890 N.am      1 MOL        -0.2637
     52 CA6         9.6610   13.4590   17.9390 C.3       1 MOL         0.1306
     53 C6          9.7820   13.0090   16.4790 C.2       1 MOL         0.1992
     54 O5          9.1750   13.6650   15.6170 O.2       1 MOL        -0.3947
     55 CB6         8.4300   12.7610   18.4970 C.3       1 MOL        -0.0124
     56 CG6         8.2240   11.3330   18.0000 C.3       1 MOL        -0.0491
     57 CD4         7.8820   10.2980   19.0490 C.3       1 MOL        -0.0557
     58 CE          6.9870    9.1640   18.5700 C.3       1 MOL        -0.0653
     59 N7         10.5930   11.8390   16.1670 N.am      1 MOL        -0.2990
     60 H1         24.9080   27.7961   17.5163 H         1 MOL         0.2015
     61 H2         23.5839   28.7272   17.8152 H         1 MOL         0.2015
     62 H3         23.7967   28.0515   16.3293 H         1 MOL         0.2015
     63 H4         23.5734   25.8743   17.1885 H         1 MOL         0.1098
     64 H5         22.7101   25.7509   19.6003 H         1 MOL         0.0347
     65 H6         23.2812   27.4440   19.7845 H         1 MOL         0.0347
     66 H7         25.4296   26.7852   20.0444 H         1 MOL         0.0302
     67 H8         25.3462   25.6848   18.6271 H         1 MOL         0.0302
     68 H9         23.9476   24.1433   20.1073 H         1 MOL         0.0689
     69 H10        24.4624   25.1757   21.4842 H         1 MOL         0.0689
     70 H11        25.9249   23.4691   21.5665 H         1 MOL         0.2642
     71 H12        28.0154   24.0763   18.1801 H         1 MOL         0.2615
     72 H13        26.4692   24.9516   18.3407 H         1 MOL         0.2615
     73 H14        27.7878   22.4594   21.3054 H         1 MOL         0.2615
     74 H15        28.7536   22.7082   19.8262 H         1 MOL         0.2615
     75 H16        21.6633   25.0141   16.7679 H         1 MOL         0.1885
     76 H17        19.2540   26.7830   16.8442 H         1 MOL         0.0802
     77 H18        20.1268   24.8431   14.6544 H         1 MOL         0.0343
     78 H19        18.1955   25.6898   13.3804 H         1 MOL         0.0234
     79 H20        17.6823   26.6566   14.8046 H         1 MOL         0.0234
     80 H21        17.6917   24.8625   14.8931 H         1 MOL         0.0234
     81 H22        21.4240   26.9557   14.7137 H         1 MOL         0.0234
     82 H23        19.8906   27.8866   14.6209 H         1 MOL         0.0234
     83 H24        20.3864   26.8338   13.2525 H         1 MOL         0.0234
     84 H25        17.9764   25.8449   18.4201 H         1 MOL         0.1857
     85 H26        18.1101   22.8776   18.5124 H         1 MOL         0.0609
     86 H27        15.6563   24.5675   19.1610 H         1 MOL         0.0837
     87 H28        15.7852   22.7801   19.2845 H         1 MOL         0.0837
     88 H29        17.4618   23.0619   20.9546 H         1 MOL         0.0292
     89 H30        17.7524   24.8298   20.8250 H         1 MOL         0.0292
     90 H31        19.9942   23.5829   19.5510 H         1 MOL         0.0296
     91 H32        21.2137   24.6410   21.4025 H         1 MOL         0.0232
     92 H33        19.6624   24.8666   22.2796 H         1 MOL         0.0232
     93 H34        19.9386   25.7022   20.7137 H         1 MOL         0.0232
     94 H35        19.2974   21.4731   20.5453 H         1 MOL         0.0232
     95 H36        19.3303   22.2201   22.1785 H         1 MOL         0.0232
     96 H37        20.8514   22.0486   21.2386 H         1 MOL         0.0232
     97 H38        16.6063   23.0548   16.9245 H         1 MOL         0.2038
     98 H39        15.7951   24.4860   16.9785 H         1 MOL         0.2038
     99 H40        13.7754   23.3590   17.5242 H         1 MOL         0.1123
    100 H41        15.4146   23.0772   15.0208 H         1 MOL         0.0507
    101 H42        13.9296   24.0379   15.3351 H         1 MOL         0.0507
    102 H43        11.7909   22.8390   15.6118 H         1 MOL         0.0557
    103 H44        15.2445   20.9498   13.9638 H         1 MOL         0.0557
    104 H45        10.3159   21.1228   14.6322 H         1 MOL         0.0599
    105 H46        13.7882   19.2361   12.9705 H         1 MOL         0.0599
    106 H47        11.3527   19.2831   13.3010 H         1 MOL         0.0559
    107 H48        12.6621   21.5847   17.8687 H         1 MOL         0.1885
    108 H49        14.0112   18.9665   17.7264 H         1 MOL         0.0801
    109 H50        12.9450   20.0755   20.3540 H         1 MOL         0.0330
    110 H51        14.6765   19.8574   19.9287 H         1 MOL         0.0330
    111 H52        14.3095   18.0604   21.2787 H         1 MOL         0.0433
    112 H53        14.0144   17.3512   19.6549 H         1 MOL         0.0433
    113 H54        12.6421   17.3366   17.3718 H         1 MOL         0.1883
    114 H55         9.8757   17.4365   18.3531 H         1 MOL         0.0797
    115 H56         8.8810   17.1462   16.0967 H         1 MOL         0.0277
    116 H57        10.5043   17.3851   15.3656 H         1 MOL         0.0277
    117 H58         9.7212   18.7242   16.2713 H         1 MOL         0.0277
    118 H59         8.8257   15.3825   18.3845 H         1 MOL         0.1883
    119 H60        10.5419   13.1244   18.5064 H         1 MOL         0.0800
    120 H61         7.5453   13.3517   18.2172 H         1 MOL         0.0312
    121 H62         8.5201   12.7323   19.5929 H         1 MOL         0.0312
    122 H63         9.1531   11.0136   17.5053 H         1 MOL         0.0267
    123 H64         7.4047   11.3490   17.2662 H         1 MOL         0.0267
    124 H65         7.3702   10.8091   19.8777 H         1 MOL         0.0263
    125 H66         8.8223    9.8590   19.4138 H         1 MOL         0.0263
    126 H67         6.7984    8.4694   19.4019 H         1 MOL         0.0230
    127 H68         7.4840    8.6264   17.7490 H         1 MOL         0.0230
    128 H69         6.0318    9.5765   18.2130 H         1 MOL         0.0230
    129 H70        10.6831   11.5312   15.2198 H         1 MOL         0.1815
    130 H71        11.0594   11.3440   16.9001 H         1 MOL         0.1815
@<TRIPOS>BOND
     1    1    2 1  
     2    2    3 1  
     3    2    5 1  
     4    3    4 2  
     5    3   12 am 
     6    5    6 1  
     7    6    7 1  
     8    7    8 1  
     9    8    9 ar 
    10    9   10 ar 
    11    9   11 ar 
    12   12   13 1  
    13   13   14 1  
    14   13   16 1  
    15   14   15 2  
    16   14   19 am 
    17   16   17 1  
    18   16   18 1  
    19   19   20 1  
    20   20   21 1  
    21   20   22 1  
    22   21   26 1  
    23   22   23 1  
    24   23   24 1  
    25   23   25 1  
    26   26   27 1  
    27   27   28 1  
    28   27   30 1  
    29   28   29 2  
    30   28   37 am 
    31   30   31 1  
    32   31   32 ar 
    33   31   33 ar 
    34   32   34 ar 
    35   33   35 ar 
    36   34   36 ar 
    37   35   36 ar 
    38   37   38 1  
    39   38   39 1  
    40   38   41 1  
    41   39   40 2  
    42   39   46 am 
    43   41   42 1  
    44   42   43 1  
    45   43   44 ar 
    46   43   45 ar 
    47   46   47 1  
    48   47   48 1  
    49   47   50 1  
    50   48   49 2  
    51   48   51 am 
    52   51   52 1  
    53   52   53 1  
    54   52   55 1  
    55   53   54 2  
    56   53   59 am 
    57   55   56 1  
    58   56   57 1  
    59   57   58 1  
    60    1   60 1  
    61    1   61 1  
    62    1   62 1  
    63    2   63 1  
    64    5   64 1  
    65    5   65 1  
    66    6   66 1  
    67    6   67 1  
    68    7   68 1  
    69    7   69 1  
    70    8   70 1  
    71   10   71 1  
    72   10   72 1  
    73   11   73 1  
    74   11   74 1  
    75   12   75 1  
    76   13   76 1  
    77   16   77 1  
    78   17   78 1  
    79   17   79 1  
    80   17   80 1  
    81   18   81 1  
    82   18   82 1  
    83   18   83 1  
    84   19   84 1  
    85   20   85 1  
    86   21   86 1  
    87   21   87 1  
    88   22   88 1  
    89   22   89 1  
    90   23   90 1  
    91   24   91 1  
    92   24   92 1  
    93   24   93 1  
    94   25   94 1  
    95   25   95 1  
    96   25   96 1  
    97   26   97 1  
    98   26   98 1  
    99   27   99 1  
   100   30  100 1  
   101   30  101 1  
   102   32  102 1  
   103   33  103 1  
   104   34  104 1  
   105   35  105 1  
   106   36  106 1  
   107   37  107 1  
   108   38  108 1  
   109   41  109 1  
   110   41  110 1  
   111   42  111 1  
   112   42  112 1  
   113   46  113 1  
   114   47  114 1  
   115   50  115 1  
   116   50  116 1  
   117   50  117 1  
   118   51  118 1  
   119   52  119 1  
   120   55  120 1  
   121   55  121 1  
   122   56  122 1  
   123   56  123 1  
   124   57  124 1  
   125   57  125 1  
   126   58  126 1  
   127   58  127 1  
   128   58  128 1  
   129   59  129 1  
   130   59  130 1  
@<TRIPOS>SUBSTRUCTURE
     1 MOL         1

