### 
### Created by X-TOOL on Mon Aug  2 16:15:30 2021
### 

@<TRIPOS>MOLECULE
6o4w_ligand
   60    63     1     0     0
SMALL
GAST_HUCK


@<TRIPOS>ATOM
      1 C1         87.4180   89.9710   -1.9140 C.ar      1 E20         0.1061
      2 C2         88.6640   89.5910   -1.4210 C.ar      1 E20         0.1060
      3 C3         89.2820   88.4480   -1.9200 C.ar      1 E20        -0.0459
      4 C4         88.6410   87.6790   -2.9300 C.ar      1 E20        -0.0573
      5 C5         87.4170   88.0580   -3.4120 C.ar      1 E20        -0.0317
      6 C6         86.7860   89.2210   -2.9050 C.ar      1 E20        -0.0435
      7 C7         87.0300   87.1190   -4.4070 C.3       1 E20         0.0838
      8 C8         88.0120   86.1330   -4.5200 C.3       1 E20        -0.0004
      9 C9         89.0210   86.4970   -3.6200 C.3       1 E20        -0.0223
     10 C10        87.5750   84.6700   -4.6770 C.3       1 E20        -0.0417
     11 C11        88.5290   83.7570   -5.6310 C.3       1 E20        -0.0309
     12 C12        89.8530   83.6620   -5.0650 C.3       1 E20        -0.0095
     13 C13        90.7310   82.6480   -5.8080 C.3       1 E20        -0.0302
     14 N14        90.0940   81.3380   -5.8820 N.4       1 E20         0.2472
     15 C15        88.7370   81.3650   -6.3810 C.3       1 E20        -0.0302
     16 C16        87.8780   82.4390   -5.7160 C.3       1 E20        -0.0095
     17 C17        90.8010   80.4360   -6.2860 C.3       1 E20         0.0019
     18 C18        91.1180   80.3750   -7.8000 C.ar      1 E20         0.0014
     19 C19        92.2520   81.0030   -8.3070 C.ar      1 E20        -0.0553
     20 C20        92.5520   80.9480   -9.6620 C.ar      1 E20        -0.0684
     21 C21        91.7300   80.2430  -10.5310 C.ar      1 E20        -0.0687
     22 C22        90.6060   79.5970  -10.0350 C.ar      1 E20        -0.0684
     23 C23        90.3120   79.6530   -8.6780 C.ar      1 E20        -0.0553
     24 O24        85.8300   87.1630   -5.1240 O.3       1 E20        -0.3820
     25 O25        86.8240   91.1250   -1.3950 O.3       1 E20        -0.3310
     26 C26        85.4290   91.1070   -1.4080 C.3       1 E20         0.0553
     27 O27        89.2600   90.3800   -0.4260 O.3       1 E20        -0.3310
     28 C28        90.5540   90.0090   -0.0500 C.3       1 E20         0.0553
     29 H1         90.2505   88.1445   -1.5393 H         1 E20         0.0434
     30 H2         85.8177   89.5258   -3.2853 H         1 E20         0.0435
     31 H3         87.4958   87.7182   -5.2033 H         1 E20         0.0724
     32 H4         88.4663   86.3230   -5.5036 H         1 E20         0.0362
     33 H5         89.1758   85.6840   -2.8954 H         1 E20         0.0394
     34 H6         89.9550   86.6794   -4.1716 H         1 E20         0.0394
     35 H7         86.5610   84.6621   -5.1032 H         1 E20         0.0274
     36 H8         87.5561   84.2118   -3.6772 H         1 E20         0.0274
     37 H9         88.5994   84.2033   -6.6339 H         1 E20         0.0305
     38 H10        89.7669   83.3518   -4.0132 H         1 E20         0.0319
     39 H11        90.3322   84.6507   -5.1177 H         1 E20         0.0319
     40 H12        91.6894   82.5493   -5.2773 H         1 E20         0.0815
     41 H13        90.9133   83.0143   -6.8291 H         1 E20         0.0815
     42 H14        89.9673   81.0957   -4.9118 H         1 E20         0.2048
     43 H15        88.2760   80.3835   -6.1965 H         1 E20         0.0815
     44 H16        88.7653   81.5592   -7.4633 H         1 E20         0.0815
     45 H17        86.9498   82.5481   -6.2961 H         1 E20         0.0319
     46 H18        87.6359   82.1060   -4.6960 H         1 E20         0.0319
     47 H19        90.3074   79.4902   -6.0181 H         1 E20         0.0980
     48 H20        91.7613   80.5118   -5.7549 H         1 E20         0.0980
     49 H21        92.9099   81.5423   -7.6352 H         1 E20         0.0558
     50 H22        93.4304   81.4569  -10.0422 H         1 E20         0.0599
     51 H23        91.9642   80.1975  -11.5884 H         1 E20         0.0559
     52 H24        89.9566   79.0480  -10.7072 H         1 E20         0.0599
     53 H25        89.4436   79.1277   -8.2971 H         1 E20         0.0558
     54 H26        85.3361   87.9324   -4.8657 H         1 E20         0.2125
     55 H27        85.0462   92.0474   -0.9847 H         1 E20         0.0570
     56 H28        85.0676   90.2601   -0.8062 H         1 E20         0.0570
     57 H29        85.0733   90.9994   -2.4433 H         1 E20         0.0570
     58 H30        90.9191   90.6924    0.7308 H         1 E20         0.0570
     59 H31        91.2194   90.0623   -0.9243 H         1 E20         0.0570
     60 H32        90.5420   88.9803    0.3395 H         1 E20         0.0570
@<TRIPOS>BOND
     1    1    2 ar 
     2    1    6 ar 
     3    1   25 1  
     4    2    3 ar 
     5    2   27 1  
     6    3    4 ar 
     7    4    5 ar 
     8    4    9 1  
     9    5    6 ar 
    10    5    7 1  
    11    7    8 1  
    12    7   24 1  
    13    8    9 1  
    14    8   10 1  
    15   10   11 1  
    16   11   12 1  
    17   11   16 1  
    18   12   13 1  
    19   13   14 1  
    20   14   15 1  
    21   14   17 1  
    22   15   16 1  
    23   17   18 1  
    24   18   19 ar 
    25   18   23 ar 
    26   19   20 ar 
    27   20   21 ar 
    28   21   22 ar 
    29   22   23 ar 
    30   25   26 1  
    31   27   28 1  
    32    3   29 1  
    33    6   30 1  
    34    7   31 1  
    35    8   32 1  
    36    9   33 1  
    37    9   34 1  
    38   10   35 1  
    39   10   36 1  
    40   11   37 1  
    41   12   38 1  
    42   12   39 1  
    43   13   40 1  
    44   13   41 1  
    45   14   42 1  
    46   15   43 1  
    47   15   44 1  
    48   16   45 1  
    49   16   46 1  
    50   17   47 1  
    51   17   48 1  
    52   19   49 1  
    53   20   50 1  
    54   21   51 1  
    55   22   52 1  
    56   23   53 1  
    57   24   54 1  
    58   26   55 1  
    59   26   56 1  
    60   26   57 1  
    61   28   58 1  
    62   28   59 1  
    63   28   60 1  
@<TRIPOS>SUBSTRUCTURE
     1 E20         1

