### 
### Created by X-TOOL on Mon Aug  2 16:15:30 2021
### 

@<TRIPOS>MOLECULE
6o4x_ligand
   25    27     1     0     0
SMALL
GAST_HUCK


@<TRIPOS>ATOM
      1 C1        100.0470   47.3780   -6.8890 C.ar      1 AA         -0.0468
      2 C2        100.2510   46.1860   -6.2140 C.ar      1 AA         -0.0598
      3 C3        100.6870   45.0700   -6.9130 C.ar      1 AA         -0.0615
      4 C4        100.9260   45.1500   -8.2790 C.ar      1 AA         -0.0497
      5 C5        101.0460   47.5200  -12.3110 C.ar      1 AA         -0.0497
      6 C6        100.8690   48.6840  -13.0430 C.ar      1 AA         -0.0615
      7 C7        100.4320   49.8440  -12.4190 C.ar      1 AA         -0.0598
      8 C8        100.1730   49.8400  -11.0570 C.ar      1 AA         -0.0468
      9 C9        100.0890   48.6640   -8.9470 C.ar      1 AA          0.0952
     10 N10       100.9570   46.4090  -10.2480 N.ar      1 AA         -0.3395
     11 C11       100.7870   47.5180  -10.9480 C.ar      1 AA          0.0172
     12 C12       100.3510   48.6770  -10.3240 C.ar      1 AA          0.0375
     13 C13       100.2860   47.4600   -8.2510 C.ar      1 AA          0.0375
     14 C14       100.7250   46.3470   -8.9480 C.ar      1 AA          0.0172
     15 N9         99.6420   49.8290   -8.2830 N.pl3     1 AA         -0.3104
     16 H1         99.6986   48.2510   -6.3489 H         1 AA          0.0675
     17 H2        100.0712   46.1256   -5.1467 H         1 AA          0.0582
     18 H3        100.8417   44.1324   -6.3915 H         1 AA          0.0657
     19 H4        101.2696   44.2766   -8.8215 H         1 AA          0.0582
     20 H5        101.3854   46.6150  -12.8017 H         1 AA          0.0582
     21 H6        101.0729   48.6881  -14.1077 H         1 AA          0.0657
     22 H7        100.2934   50.7515  -12.9954 H         1 AA          0.0582
     23 H8         99.8320   50.7444  -10.5663 H         1 AA          0.0675
     24 H9         99.5037   50.7021   -8.8117 H         1 AA          0.1906
     25 H10        99.4545   49.8048   -7.2705 H         1 AA          0.1906
@<TRIPOS>BOND
     1    1    2 ar 
     2   13    1 ar 
     3    2    3 ar 
     4    3    4 ar 
     5    4   14 ar 
     6    6    5 ar 
     7    5   11 ar 
     8    7    6 ar 
     9    8    7 ar 
    10   12    8 ar 
    11    9   12 ar 
    12    9   13 ar 
    13    9   15 1  
    14   11   10 ar 
    15   10   14 ar 
    16   11   12 ar 
    17   13   14 ar 
    18    1   16 1  
    19    2   17 1  
    20    3   18 1  
    21    4   19 1  
    22    5   20 1  
    23    6   21 1  
    24    7   22 1  
    25    8   23 1  
    26   15   24 1  
    27   15   25 1  
@<TRIPOS>SUBSTRUCTURE
     1 AA          1

