### 
### Created by X-TOOL on Mon Aug  2 16:15:31 2021
### 

@<TRIPOS>MOLECULE
6o50_ligand
   68    69     1     0     0
SMALL
GAST_HUCK


@<TRIPOS>ATOM
      1 C1         36.4330  -14.5840   -9.5220 C.2       1 EBW         0.1098
      2 C2         36.1190  -15.0520   -8.1200 C.3       1 EBW         0.0333
      3 C5         35.7320  -13.3790  -10.1010 C.3       1 EBW         0.0333
      4 C6         35.9060  -16.5480   -8.1250 C.3       1 EBW         0.0038
      5 C7         35.5950  -17.1250   -6.7640 C.ar      1 EBW        -0.0259
      6 C8         36.4700  -18.0380   -6.2010 C.ar      1 EBW        -0.0429
      7 C9         36.1960  -18.5770   -4.9560 C.ar      1 EBW        -0.0196
      8 C10        35.0430  -18.2100   -4.2830 C.ar      1 EBW         0.0056
      9 C11        34.1670  -17.2950   -4.8450 C.ar      1 EBW        -0.0196
     10 N1         32.3170   -9.2950  -13.6620 N.4       1 EBW         0.4094
     11 N2         34.7750  -18.7600   -3.0060 N.4       1 EBW         0.4094
     12 C12        34.4420  -16.7530   -6.0910 C.ar      1 EBW        -0.0429
     13 C13        34.9340  -13.7740  -11.3230 C.3       1 EBW         0.0038
     14 C14        34.2430  -12.5880  -11.9510 C.ar      1 EBW        -0.0259
     15 C15        33.2270  -11.9490  -11.2630 C.ar      1 EBW        -0.0429
     16 C16        32.5890  -10.8580  -11.8320 C.ar      1 EBW        -0.0196
     17 C17        32.9730  -10.4130  -13.0880 C.ar      1 EBW         0.0056
     18 C18        33.9920  -11.0550  -13.7750 C.ar      1 EBW        -0.0196
     19 C19        34.6270  -12.1420  -13.2040 C.ar      1 EBW        -0.0429
     20 C20        32.8540   -9.0390  -14.9490 C.3       1 EBW        -0.0428
     21 C21        30.9270   -9.5660  -13.7570 C.3       1 EBW        -0.0428
     22 C22        32.5380   -8.1660  -12.8320 C.3       1 EBW        -0.0048
     23 C23        34.0020   -8.0740  -12.4570 C.2       1 EBW        -0.0606
     24 C24        34.7750  -17.6830   -2.0810 C.3       1 EBW        -0.0048
     25 C25        35.7900  -19.6990   -2.6820 C.3       1 EBW        -0.0428
     26 C26        33.5130  -19.4090   -3.0000 C.3       1 EBW        -0.0428
     27 C27        35.9540  -17.7720   -1.1400 C.2       1 EBW        -0.0606
     28 C28        36.9620  -16.8870   -1.2730 C.2       1 EBW        -0.1142
     29 C29        34.3570   -7.6210  -11.2380 C.2       1 EBW        -0.1142
     30 O1         37.2480  -15.1870  -10.1900 O.2       1 EBW        -0.3912
     31 H1         35.2064  -14.5528   -7.7624 H         1 EBW         0.0522
     32 H2         36.9581  -14.8033   -7.4537 H         1 EBW         0.0522
     33 H3         36.4809  -12.6249  -10.3847 H         1 EBW         0.0522
     34 H4         35.0535  -12.9559   -9.3456 H         1 EBW         0.0522
     35 H5         36.8208  -17.0271   -8.5038 H         1 EBW         0.0490
     36 H6         35.0667  -16.7764   -8.7983 H         1 EBW         0.0490
     37 H7         37.3676  -18.3301   -6.7339 H         1 EBW         0.0607
     38 H8         36.8833  -19.2857   -4.5083 H         1 EBW         0.0710
     39 H9         33.2692  -17.0039   -4.3118 H         1 EBW         0.0710
     40 H10        33.7576  -16.0407   -6.5373 H         1 EBW         0.0607
     41 H11        34.1745  -14.5131  -11.0283 H         1 EBW         0.0490
     42 H12        35.6141  -14.2220  -12.0625 H         1 EBW         0.0490
     43 H13        32.9306  -12.3007  -10.2814 H         1 EBW         0.0607
     44 H14        31.7923  -10.3541  -11.2968 H         1 EBW         0.0710
     45 H15        34.2898  -10.7055  -14.7570 H         1 EBW         0.0710
     46 H16        35.4255  -12.6451  -13.7373 H         1 EBW         0.0607
     47 H17        32.3441   -8.1714  -15.3931 H         1 EBW         0.0584
     48 H18        32.7046   -9.9200  -15.5905 H         1 EBW         0.0584
     49 H19        33.9298   -8.8270  -14.8619 H         1 EBW         0.0584
     50 H20        30.5224   -9.7628  -12.7532 H         1 EBW         0.0584
     51 H21        30.7680  -10.4474  -14.3956 H         1 EBW         0.0584
     52 H22        30.4133   -8.6979  -14.1957 H         1 EBW         0.0584
     53 H23        31.9338   -8.2627  -11.9179 H         1 EBW         0.0800
     54 H24        32.2429   -7.2542  -13.3719 H         1 EBW         0.0800
     55 H25        34.7675   -8.3735  -13.1713 H         1 EBW         0.0707
     56 H26        33.8448  -17.7133   -1.4947 H         1 EBW         0.0800
     57 H27        34.8286  -16.7341   -2.6348 H         1 EBW         0.0800
     58 H28        35.7724  -20.5236   -3.4098 H         1 EBW         0.0584
     59 H29        35.6122  -20.0974   -1.6722 H         1 EBW         0.0584
     60 H30        36.7715  -19.2034   -2.7131 H         1 EBW         0.0584
     61 H31        32.7260  -18.6826   -3.2508 H         1 EBW         0.0584
     62 H32        33.3207  -19.8276   -2.0011 H         1 EBW         0.0584
     63 H33        33.5141  -20.2198   -3.7434 H         1 EBW         0.0584
     64 H34        35.9887  -18.5385   -0.3672 H         1 EBW         0.0707
     65 H35        37.8203  -16.9348   -0.6045 H         1 EBW         0.0291
     66 H36        36.9180  -16.1242   -2.0490 H         1 EBW         0.0291
     67 H37        35.4097   -7.5544  -10.9672 H         1 EBW         0.0291
     68 H38        33.5911   -7.3216  -10.5241 H         1 EBW         0.0291
@<TRIPOS>BOND
     1    1    2 1  
     2    3    1 1  
     3    1   30 2  
     4    2    4 1  
     5   13    3 1  
     6    4    5 1  
     7    5    6 ar 
     8    5   12 ar 
     9    6    7 ar 
    10    7    8 ar 
    11    9    8 ar 
    12    8   11 1  
    13   12    9 ar 
    14   17   10 1  
    15   10   20 1  
    16   10   21 1  
    17   10   22 1  
    18   11   24 1  
    19   11   25 1  
    20   11   26 1  
    21   14   13 1  
    22   15   14 ar 
    23   14   19 ar 
    24   16   15 ar 
    25   16   17 ar 
    26   17   18 ar 
    27   18   19 ar 
    28   22   23 1  
    29   23   29 2  
    30   24   27 1  
    31   27   28 2  
    32    2   31 1  
    33    2   32 1  
    34    3   33 1  
    35    3   34 1  
    36    4   35 1  
    37    4   36 1  
    38    6   37 1  
    39    7   38 1  
    40    9   39 1  
    41   12   40 1  
    42   13   41 1  
    43   13   42 1  
    44   15   43 1  
    45   16   44 1  
    46   18   45 1  
    47   19   46 1  
    48   20   47 1  
    49   20   48 1  
    50   20   49 1  
    51   21   50 1  
    52   21   51 1  
    53   21   52 1  
    54   22   53 1  
    55   22   54 1  
    56   23   55 1  
    57   24   56 1  
    58   24   57 1  
    59   25   58 1  
    60   25   59 1  
    61   25   60 1  
    62   26   61 1  
    63   26   62 1  
    64   26   63 1  
    65   27   64 1  
    66   28   65 1  
    67   28   66 1  
    68   29   67 1  
    69   29   68 1  
@<TRIPOS>SUBSTRUCTURE
     1 EBW         1

