### 
### Created by X-TOOL on Mon Aug  2 16:15:32 2021
### 

@<TRIPOS>MOLECULE
6o5a_ligand
  123   122     1     0     0
SMALL
GAST_HUCK


@<TRIPOS>ATOM
      1 C          17.8390   -4.0140   -5.3340 C.2       1 MOL         0.1752
      2 O          16.7930   -3.5360   -4.9180 O.2       1 MOL        -0.3972
      3 CH3        18.2610   -4.1830   -6.7300 C.3       1 MOL         0.0258
      4 N          18.7780   -4.5140   -4.5230 N.am      1 MOL        -0.2635
      5 CA         18.6220   -4.3280   -3.2000 C.3       1 MOL         0.1564
      6 C1         19.4960   -3.2480   -2.6190 C.2       1 MOL         0.2065
      7 O1         20.7660   -3.2340   -2.6960 O.2       1 MOL        -0.3943
      8 CB         19.0430   -5.7120   -2.6580 C.3       1 MOL         0.0924
      9 OG1        18.2980   -6.8830   -2.9830 O.3       1 MOL        -0.3874
     10 CG2        18.8900   -5.7300   -1.1730 C.3       1 MOL        -0.0346
     11 N1         18.8190   -2.4690   -1.9240 N.am      1 MOL        -0.2634
     12 CA1        19.4460   -1.4060   -1.3000 C.3       1 MOL         0.1334
     13 C2         19.2540   -1.3520    0.1890 C.2       1 MOL         0.2023
     14 O2         18.3740   -0.9500    0.9680 O.2       1 MOL        -0.3945
     15 CB1        19.1610   -0.1150   -2.0570 C.3       1 MOL        -0.0037
     16 CG1        18.9500   -0.2450   -3.5580 C.3       1 MOL        -0.0491
     17 CG21       20.1800    0.9980   -1.9910 C.3       1 MOL        -0.0582
     18 CD1        20.3100   -0.5460   -4.2500 C.3       1 MOL        -0.0648
     19 N2         20.2280   -1.7180    0.8040 N.am      1 MOL        -0.2769
     20 CA2        20.0260   -1.7090    2.2400 C.3       1 MOL         0.0817
     21 C3         20.6240   -0.6940    3.2130 C.3       1 MOL        -0.0081
     22 CB2        20.5740   -2.9470    2.8850 C.3       1 MOL        -0.0249
     23 CG         20.3180   -4.1950    2.1050 C.3       1 MOL        -0.0510
     24 CD         18.8800   -4.5100    2.1950 C.3       1 MOL        -0.0558
     25 CE         18.8990   -5.9280    2.6020 C.3       1 MOL        -0.0653
     26 N3         20.4890    0.6750    2.7670 N.4       1 MOL         0.2477
     27 CA3        20.4020    1.7380    3.7520 C.3       1 MOL         0.0668
     28 C4         19.5750    1.4720    4.9310 C.2       1 MOL         0.2268
     29 O3         18.4100    0.9170    5.0680 O.2       1 MOL        -0.3907
     30 CB3        20.2440    3.0280    3.0030 C.3       1 MOL         0.0079
     31 CG3        20.1740    4.1880    3.9280 C.3       1 MOL        -0.0460
     32 CD2        19.5970    5.4010    3.3130 C.3       1 MOL        -0.0556
     33 CE1        18.1280    5.2990    3.5290 C.3       1 MOL        -0.0653
     34 N4         20.0730    1.7780    6.0330 N.am      1 MOL        -0.2609
     35 CA4        19.3160    1.6300    7.3260 C.3       1 MOL         0.1331
     36 C5         19.5700    2.8280    8.3330 C.2       1 MOL         0.2040
     37 O4         20.7110    3.2360    8.7720 O.2       1 MOL        -0.3944
     38 CB4        19.3570    0.2080    7.9130 C.3       1 MOL         0.0045
     39 CG4        18.6980    0.0470    9.1760 C.3       1 MOL         0.0412
     40 CD3        19.3890    0.4900   10.3080 C.2       1 MOL         0.1737
     41 OE1        20.5640    0.5280   10.2140 O.2       1 MOL        -0.3973
     42 NE2        18.7320    0.7950   11.4600 N.am      1 MOL        -0.3009
     43 N5         18.6080    3.4850    8.9000 N.am      1 MOL        -0.2637
     44 CA5        18.7370    4.4640   10.0410 C.3       1 MOL         0.1307
     45 C6         17.9530    4.0700   11.2190 C.2       1 MOL         0.1992
     46 O5         16.8840    3.5360   11.0170 O.2       1 MOL        -0.3947
     47 CB5        18.3260    5.7890    9.5410 C.3       1 MOL        -0.0092
     48 CG5        19.0620    6.1800    8.3340 C.3       1 MOL        -0.0156
     49 CD4        18.3480    7.5520    8.2510 C.3       1 MOL         0.0627
     50 NE         18.7330    8.1770    6.9670 N.pl3     1 MOL        -0.2723
     51 CZ         18.2690    9.3680    6.6370 C.cat     1 MOL         0.2882
     52 NH1        17.3220    9.9450    7.3880 N.pl3     1 MOL        -0.2849
     53 NH2        18.7960    9.9890    5.6020 N.pl3     1 MOL        -0.2849
     54 N6         18.3580    4.2240   12.5030 N.am      1 MOL        -0.2990
     55 H1         19.2584   -4.6460   -6.7580 H         1 MOL         0.0467
     56 H2         18.2989   -3.2005   -7.2231 H         1 MOL         0.0467
     57 H3         17.5420   -4.8292   -7.2548 H         1 MOL         0.0467
     58 H4         19.5674   -5.0082   -4.8872 H         1 MOL         0.1883
     59 H5         17.5722   -4.1033   -2.9603 H         1 MOL         0.0826
     60 H6         20.0915   -5.8663   -2.9526 H         1 MOL         0.0639
     61 H7         18.6980   -7.6373   -2.5663 H         1 MOL         0.2101
     62 H8         19.1894   -6.7150   -0.7855 H         1 MOL         0.0257
     63 H9         17.8395   -5.5365   -0.9102 H         1 MOL         0.0257
     64 H10        19.5283   -4.9519   -0.7291 H         1 MOL         0.0257
     65 H11        17.8346   -2.6097   -1.8181 H         1 MOL         0.1883
     66 H12        20.5238   -1.5841   -1.4291 H         1 MOL         0.0802
     67 H13        18.2278    0.2658   -1.6164 H         1 MOL         0.0345
     68 H14        18.5382    0.6954   -3.9530 H         1 MOL         0.0267
     69 H15        18.2467   -1.0665   -3.7594 H         1 MOL         0.0267
     70 H16        20.4316    1.2029   -0.9399 H         1 MOL         0.0235
     71 H17        19.7623    1.9054   -2.4516 H         1 MOL         0.0235
     72 H18        21.0882    0.6963   -2.5333 H         1 MOL         0.0235
     73 H19        20.1564   -0.6398   -5.3352 H         1 MOL         0.0230
     74 H20        20.7220   -1.4865   -3.8554 H         1 MOL         0.0230
     75 H21        21.0135    0.2754   -4.0490 H         1 MOL         0.0230
     76 H22        21.0835   -1.9977    0.3683 H         1 MOL         0.1857
     77 H23        18.9338   -1.6710    2.3649 H         1 MOL         0.0609
     78 H24        21.6941   -0.9170    3.3361 H         1 MOL         0.0837
     79 H25        20.1141   -0.7972    4.1822 H         1 MOL         0.0837
     80 H26        20.1104   -3.0562    3.8765 H         1 MOL         0.0289
     81 H27        21.6613   -2.8264    2.9999 H         1 MOL         0.0289
     82 H28        20.9073   -5.0236    2.5248 H         1 MOL         0.0266
     83 H29        20.5999   -4.0407    1.0530 H         1 MOL         0.0266
     84 H30        18.3812   -4.3803    1.2232 H         1 MOL         0.0263
     85 H31        18.3808   -3.8847    2.9498 H         1 MOL         0.0263
     86 H32        17.8667   -6.2933    2.7066 H         1 MOL         0.0230
     87 H33        19.4219   -6.0262    3.5647 H         1 MOL         0.0230
     88 H34        19.4224   -6.5218    1.8382 H         1 MOL         0.0230
     89 H35        19.6504    0.7213    2.2096 H         1 MOL         0.2036
     90 H36        21.2891    0.8758    2.1877 H         1 MOL         0.2036
     91 H37        21.4117    1.8022    4.1837 H         1 MOL         0.1099
     92 H38        19.3181    2.9866    2.4106 H         1 MOL         0.0346
     93 H39        21.1043    3.1586    2.3301 H         1 MOL         0.0346
     94 H40        21.1930    4.4224    4.2695 H         1 MOL         0.0269
     95 H41        19.5533    3.9072    4.7916 H         1 MOL         0.0269
     96 H42        19.8257    5.4322    2.2375 H         1 MOL         0.0263
     97 H43        19.9947    6.3042    3.7988 H         1 MOL         0.0263
     98 H44        17.6313    6.1778    3.0920 H         1 MOL         0.0230
     99 H45        17.9180    5.2580    4.6080 H         1 MOL         0.0230
    100 H46        17.7490    4.3860    3.0467 H         1 MOL         0.0230
    101 H47        21.0072    2.1339    6.0585 H         1 MOL         0.1885
    102 H48        18.2623    1.7556    7.0363 H         1 MOL         0.0801
    103 H49        20.4118   -0.0763    8.0415 H         1 MOL         0.0337
    104 H50        18.8794   -0.4713    7.1916 H         1 MOL         0.0337
    105 H51        18.4924   -1.0253    9.3100 H         1 MOL         0.0504
    106 H52        17.7480    0.5994    9.1286 H         1 MOL         0.0504
    107 H53        19.2439    1.1103   12.2591 H         1 MOL         0.1814
    108 H54        17.7373    0.7038   11.5075 H         1 MOL         0.1814
    109 H55        17.6864    3.3273    8.5455 H         1 MOL         0.1883
    110 H56        19.7939    4.5116   10.3420 H         1 MOL         0.0800
    111 H57        18.5112    6.5367   10.3262 H         1 MOL         0.0313
    112 H58        17.2515    5.7614    9.3070 H         1 MOL         0.0313
    113 H59        18.8627    5.5296    7.4696 H         1 MOL         0.0301
    114 H60        20.1479    6.2602    8.4899 H         1 MOL         0.0301
    115 H61        18.6635    8.1908    9.0890 H         1 MOL         0.0689
    116 H62        17.2577    7.4108    8.2878 H         1 MOL         0.0689
    117 H63        19.3675    7.6796    6.3259 H         1 MOL         0.2642
    118 H64        16.9578   10.8742    7.1333 H         1 MOL         0.2615
    119 H65        16.9579    9.4596    8.2203 H         1 MOL         0.2615
    120 H66        19.5232    9.5254    5.0388 H         1 MOL         0.2615
    121 H67        18.4810   10.9382    5.3558 H         1 MOL         0.2615
    122 H68        17.7654    3.9299   13.2529 H         1 MOL         0.1815
    123 H69        19.2494    4.6318   12.7006 H         1 MOL         0.1815
@<TRIPOS>BOND
     1    1    2 2  
     2    1    3 1  
     3    1    4 am 
     4    4    5 1  
     5    5    6 1  
     6    5    8 1  
     7    6    7 2  
     8    6   11 am 
     9    8    9 1  
    10    8   10 1  
    11   11   12 1  
    12   12   13 1  
    13   12   15 1  
    14   13   14 2  
    15   13   19 am 
    16   15   16 1  
    17   15   17 1  
    18   16   18 1  
    19   19   20 1  
    20   20   21 1  
    21   20   22 1  
    22   21   26 1  
    23   22   23 1  
    24   23   24 1  
    25   24   25 1  
    26   26   27 1  
    27   27   28 1  
    28   27   30 1  
    29   28   29 2  
    30   28   34 am 
    31   30   31 1  
    32   31   32 1  
    33   32   33 1  
    34   34   35 1  
    35   35   36 1  
    36   35   38 1  
    37   36   37 2  
    38   36   43 am 
    39   38   39 1  
    40   39   40 1  
    41   40   41 2  
    42   40   42 am 
    43   43   44 1  
    44   44   45 1  
    45   44   47 1  
    46   45   46 2  
    47   45   54 am 
    48   47   48 1  
    49   48   49 1  
    50   49   50 1  
    51   50   51 ar 
    52   51   52 ar 
    53   51   53 ar 
    54    3   55 1  
    55    3   56 1  
    56    3   57 1  
    57    4   58 1  
    58    5   59 1  
    59    8   60 1  
    60    9   61 1  
    61   10   62 1  
    62   10   63 1  
    63   10   64 1  
    64   11   65 1  
    65   12   66 1  
    66   15   67 1  
    67   16   68 1  
    68   16   69 1  
    69   17   70 1  
    70   17   71 1  
    71   17   72 1  
    72   18   73 1  
    73   18   74 1  
    74   18   75 1  
    75   19   76 1  
    76   20   77 1  
    77   21   78 1  
    78   21   79 1  
    79   22   80 1  
    80   22   81 1  
    81   23   82 1  
    82   23   83 1  
    83   24   84 1  
    84   24   85 1  
    85   25   86 1  
    86   25   87 1  
    87   25   88 1  
    88   26   89 1  
    89   26   90 1  
    90   27   91 1  
    91   30   92 1  
    92   30   93 1  
    93   31   94 1  
    94   31   95 1  
    95   32   96 1  
    96   32   97 1  
    97   33   98 1  
    98   33   99 1  
    99   33  100 1  
   100   34  101 1  
   101   35  102 1  
   102   38  103 1  
   103   38  104 1  
   104   39  105 1  
   105   39  106 1  
   106   42  107 1  
   107   42  108 1  
   108   43  109 1  
   109   44  110 1  
   110   47  111 1  
   111   47  112 1  
   112   48  113 1  
   113   48  114 1  
   114   49  115 1  
   115   49  116 1  
   116   50  117 1  
   117   52  118 1  
   118   52  119 1  
   119   53  120 1  
   120   53  121 1  
   121   54  122 1  
   122   54  123 1  
@<TRIPOS>SUBSTRUCTURE
     1 MOL         1

