### 
### Created by X-TOOL on Mon Aug  2 16:15:32 2021
### 

@<TRIPOS>MOLECULE
6o5g_ligand
   51    56     1     0     0
SMALL
GAST_HUCK


@<TRIPOS>ATOM
      1 C11         2.6050   59.3420  114.8880 C.3       1 LMJ        -0.0537
      2 C12         1.7100   58.1670  114.3920 C.3       1 LMJ        -0.1070
      3 C13         1.6940   60.2410  115.7990 C.3       1 LMJ        -0.1070
      4 C14         3.7190   58.6670  115.8000 C.3       1 LMJ        -0.0443
      5 C15         3.2430   58.6070  117.2460 C.3       1 LMJ        -0.0069
      6 C16         5.1600   59.2720  115.7220 C.3       1 LMJ         0.0998
      7 C17         5.5710   59.1460  114.2720 C.3       1 LMJ         0.0356
      8 N18         6.0170   58.4390  116.5720 N.am      1 LMJ        -0.2683
      9 C19         5.6120   58.3920  117.9470 C.2       1 LMJ         0.2482
     10 C20         4.2960   59.1920  118.1280 C.3       1 LMJ         0.0706
     11 C21         3.8970   59.2520  119.5870 C.3       1 LMJ         0.0055
     12 C23         5.3080   61.1730  118.8970 C.3       1 LMJ        -0.0315
     13 C02         5.0560   62.3700  110.0500 C.ar      1 LMJ         0.0314
     14 C03         3.8620   62.1650  110.6870 C.ar      1 LMJ        -0.0123
     15 C04         3.8380   61.3270  111.8220 C.ar      1 LMJ         0.0932
     16 C05         5.0510   60.7190  112.2840 C.ar      1 LMJ         0.0483
     17 C06         6.2470   60.9690  111.5830 C.ar      1 LMJ        -0.0290
     18 C07         6.2400   61.7830  110.4850 C.ar      1 LMJ         0.0520
     19 C09         4.6710   59.9500  113.4350 C.2       1 LMJ         0.0237
     20 C10         3.3350   60.0480  113.7030 C.2       1 LMJ         0.0235
     21 C22         4.6700   60.4690  120.1220 C.3       1 LMJ        -0.0079
     22 C25         5.3640   60.6630  116.4540 C.3       1 LMJ        -0.0029
     23 N24         4.5840   60.6160  117.7330 N.4       1 LMJ         0.2414
     24 N27         2.7960   60.9020  112.7040 N.pl3     1 LMJ        -0.2754
     25 O26         6.2270   57.8120  118.7640 O.2       1 LMJ        -0.3383
     26 BR01        5.1590   63.4970  108.5060 Br        1 LMJ        -0.0407
     27 CL08        7.6860   62.1260  109.5960 Cl        1 LMJ        -0.0748
     28 H1          1.2135   57.6956  115.2530 H         1 LMJ         0.0055
     29 H2          2.3345   57.4228  113.8762 H         1 LMJ         0.0055
     30 H3          0.9500   58.5531  113.6968 H         1 LMJ         0.0055
     31 H4          2.2800   61.0911  116.1783 H         1 LMJ         0.0055
     32 H5          1.3210   59.6459  116.6456 H         1 LMJ         0.0055
     33 H6          0.8432   60.6155  115.2109 H         1 LMJ         0.0055
     34 H7          3.8105   57.6298  115.4453 H         1 LMJ         0.0157
     35 H8          3.0621   57.5603  117.5318 H         1 LMJ         0.0300
     36 H9          2.3115   59.1824  117.3520 H         1 LMJ         0.0300
     37 H10         5.5124   58.0914  113.9648 H         1 LMJ         0.0578
     38 H11         6.6032   59.5064  114.1511 H         1 LMJ         0.0578
     39 H12         6.8144   57.9466  116.2232 H         1 LMJ         0.1869
     40 H13         4.1957   58.3340  120.1142 H         1 LMJ         0.0312
     41 H14         2.8119   59.3986  119.6920 H         1 LMJ         0.0312
     42 H15         6.3821   60.9446  118.8327 H         1 LMJ         0.0815
     43 H16         5.1677   62.2623  118.9575 H         1 LMJ         0.0815
     44 H17         2.9544   62.6362  110.3273 H         1 LMJ         0.0617
     45 H18         7.1739   60.5153  111.9147 H         1 LMJ         0.0716
     46 H19         5.4541   60.1416  120.8206 H         1 LMJ         0.0317
     47 H20         3.9832   61.1563  120.6376 H         1 LMJ         0.0317
     48 H21         4.9937   61.4804  115.8178 H         1 LMJ         0.0843
     49 H22         6.4309   60.8211  116.6701 H         1 LMJ         0.0843
     50 H23         3.7226   61.1216  117.5973 H         1 LMJ         0.2038
     51 H24         1.8055   61.1737  112.6268 H         1 LMJ         0.2212
@<TRIPOS>BOND
     1    1    2 1  
     2    1    3 1  
     3    4    1 1  
     4    1   20 1  
     5    4    5 1  
     6    6    4 1  
     7    5   10 1  
     8    7    6 1  
     9    6    8 1  
    10    6   22 1  
    11   19    7 1  
    12    8    9 am 
    13    9   10 1  
    14    9   25 2  
    15   10   11 1  
    16   10   23 1  
    17   11   21 1  
    18   12   21 1  
    19   23   12 1  
    20   14   13 ar 
    21   13   18 ar 
    22   13   26 1  
    23   15   14 ar 
    24   16   15 ar 
    25   15   24 1  
    26   16   17 ar 
    27   16   19 1  
    28   17   18 ar 
    29   18   27 1  
    30   19   20 2  
    31   20   24 1  
    32   22   23 1  
    33    2   28 1  
    34    2   29 1  
    35    2   30 1  
    36    3   31 1  
    37    3   32 1  
    38    3   33 1  
    39    4   34 1  
    40    5   35 1  
    41    5   36 1  
    42    7   37 1  
    43    7   38 1  
    44    8   39 1  
    45   11   40 1  
    46   11   41 1  
    47   12   42 1  
    48   12   43 1  
    49   14   44 1  
    50   17   45 1  
    51   21   46 1  
    52   21   47 1  
    53   22   48 1  
    54   22   49 1  
    55   23   50 1  
    56   24   51 1  
@<TRIPOS>SUBSTRUCTURE
     1 LMJ         1

