### 
### Created by X-TOOL on Mon Aug  2 16:15:32 2021
### 

@<TRIPOS>MOLECULE
6o5u_ligand
   73    75     1     0     0
SMALL
GAST_HUCK


@<TRIPOS>ATOM
      1 C1        108.6730  -18.4700   -7.8360 C.3       1 KAN         0.1887
      2 C2        107.3110  -18.9740   -7.3680 C.3       1 KAN         0.1341
      3 C3        107.4800  -20.3570   -6.7640 C.3       1 KAN         0.1142
      4 C4        108.0820  -21.2810   -7.8150 C.3       1 KAN         0.1147
      5 C5        109.3440  -20.6380   -8.3930 C.3       1 KAN         0.1294
      6 C6        109.7960  -21.4700   -9.5890 C.3       1 KAN        -0.0058
      7 C7        112.5990  -15.8100   -5.7750 C.3       1 KAN         0.0104
      8 C8        112.1040  -15.6660   -7.2080 C.3       1 KAN         0.1325
      9 C9        110.7540  -16.3630   -7.2880 C.3       1 KAN         0.1181
     10 C10       110.8240  -17.8460   -6.8990 C.3       1 KAN         0.1325
     11 C11       111.5110  -18.0160   -5.5370 C.3       1 KAN         0.0104
     12 C12       112.8430  -17.2770   -5.4680 C.3       1 KAN         0.0381
     13 C13       112.8110  -13.7240   -8.4160 C.3       1 KAN         0.1915
     14 C14       112.9750  -12.2640   -8.0080 C.3       1 KAN         0.1506
     15 C15       111.6610  -11.5000   -8.1330 C.3       1 KAN         0.0360
     16 C16       111.2120  -11.6530   -9.5690 C.3       1 KAN         0.1283
     17 C17       111.1210  -13.1180   -9.9350 C.3       1 KAN         0.1159
     18 C18       110.8030  -13.1430  -11.4220 C.3       1 KAN         0.0731
     19 N1        110.9760  -20.8510  -10.1750 N.4       1 KAN         0.2204
     20 N2        111.7470  -19.4450   -5.3220 N.4       1 KAN         0.2228
     21 N3        113.8400  -15.0670   -5.6100 N.4       1 KAN         0.2228
     22 N4        111.8410  -10.0810   -7.8770 N.4       1 KAN         0.2246
     23 O5        109.1180  -19.3280   -8.8520 O.3       1 KAN        -0.3375
     24 O6        106.8170  -18.1010   -6.3680 O.3       1 KAN        -0.3841
     25 O7        106.1940  -20.8240   -6.3760 O.3       1 KAN        -0.3864
     26 O8        108.4250  -22.5370   -7.2480 O.3       1 KAN        -0.3864
     27 O9        109.5510  -18.4650   -6.7100 O.3       1 KAN        -0.3372
     28 O10       110.3630  -16.2700   -8.6430 O.3       1 KAN        -0.3862
     29 O11       111.9040  -14.2970   -7.4880 O.3       1 KAN        -0.3371
     30 O12       112.3420  -13.8090   -9.7580 O.3       1 KAN        -0.3403
     31 O13       113.3340  -12.2190   -6.6510 O.3       1 KAN        -0.3812
     32 O14       109.9130  -11.0980   -9.7100 O.3       1 KAN        -0.3834
     33 O15       110.7860  -14.4810  -11.8020 O.3       1 KAN        -0.3924
     34 H1        108.5849  -17.4481   -8.2335 H         1 KAN         0.0938
     35 H2        106.6110  -19.0136   -8.2156 H         1 KAN         0.0671
     36 H3        108.1422  -20.3106   -5.8869 H         1 KAN         0.0648
     37 H4        107.3482  -21.4364   -8.6196 H         1 KAN         0.0648
     38 H5        110.1283  -20.6235   -7.6219 H         1 KAN         0.0678
     39 H6        108.9902  -21.5100  -10.3367 H         1 KAN         0.0840
     40 H7        110.0401  -22.4902   -9.2580 H         1 KAN         0.0840
     41 H8        111.8404  -15.4127   -5.0845 H         1 KAN         0.0878
     42 H9        112.8201  -16.1077   -7.9166 H         1 KAN         0.0681
     43 H10       110.0297  -15.8512   -6.6373 H         1 KAN         0.0649
     44 H11       111.3832  -18.3815   -7.6803 H         1 KAN         0.0681
     45 H12       110.8479  -17.6277   -4.7499 H         1 KAN         0.0878
     46 H13       113.2714  -17.3785   -4.4599 H         1 KAN         0.0377
     47 H14       113.5399  -17.6994   -6.2068 H         1 KAN         0.0377
     48 H15       113.7790  -14.2421   -8.3484 H         1 KAN         0.0939
     49 H16       113.7482  -11.7899   -8.6303 H         1 KAN         0.0702
     50 H17       110.9138  -11.9143   -7.4402 H         1 KAN         0.0904
     51 H18       111.9204  -11.1405  -10.2365 H         1 KAN         0.0678
     52 H19       110.3289  -13.6061   -9.3482 H         1 KAN         0.0648
     53 H20       111.5756  -12.5984  -11.9846 H         1 KAN         0.0584
     54 H21       109.8212  -12.6831  -11.6080 H         1 KAN         0.0584
     55 H22       111.2823  -21.3944  -10.9669 H         1 KAN         0.1995
     56 H23       111.7125  -20.8142   -9.4878 H         1 KAN         0.1995
     57 H24       110.7504  -19.9159  -10.4762 H         1 KAN         0.1995
     58 H25       110.8704  -19.9407   -5.3662 H         1 KAN         0.1998
     59 H26       112.1661  -19.5838   -4.4158 H         1 KAN         0.1998
     60 H27       112.3669  -19.7944   -6.0360 H         1 KAN         0.1998
     61 H28       113.6782  -14.0932   -5.8138 H         1 KAN         0.1998
     62 H29       114.5362  -15.4312   -6.2415 H         1 KAN         0.1998
     63 H30       114.1649  -15.1621   -4.6606 H         1 KAN         0.1998
     64 H31       112.1413   -9.9469   -6.9241 H         1 KAN         0.1999
     65 H32       110.9679   -9.5994   -8.0250 H         1 KAN         0.1999
     66 H33       112.5387   -9.7123   -8.5041 H         1 KAN         0.1999
     67 H34       107.4342  -18.0661   -5.6466 H         1 KAN         0.2101
     68 H35       106.2721  -21.6985   -6.0132 H         1 KAN         0.2100
     69 H36       109.0652  -22.4075   -6.5582 H         1 KAN         0.2100
     70 H37       111.0004  -16.7177   -9.1868 H         1 KAN         0.2100
     71 H38       113.4398  -11.3139   -6.3824 H         1 KAN         0.2103
     72 H39       109.6225  -11.1992  -10.6088 H         1 KAN         0.2102
     73 H40       111.6361  -14.8686  -11.6303 H         1 KAN         0.2095
@<TRIPOS>BOND
     1    1    2 1  
     2    1   23 1  
     3   27    1 1  
     4    2    3 1  
     5    2   24 1  
     6    3    4 1  
     7    3   25 1  
     8    5    4 1  
     9    4   26 1  
    10    5    6 1  
    11   23    5 1  
    12    6   19 1  
    13    8    7 1  
    14    7   12 1  
    15    7   21 1  
    16    8    9 1  
    17   29    8 1  
    18    9   10 1  
    19    9   28 1  
    20   10   11 1  
    21   10   27 1  
    22   12   11 1  
    23   11   20 1  
    24   13   14 1  
    25   13   29 1  
    26   13   30 1  
    27   14   15 1  
    28   14   31 1  
    29   15   16 1  
    30   15   22 1  
    31   16   17 1  
    32   16   32 1  
    33   17   18 1  
    34   17   30 1  
    35   18   33 1  
    36    1   34 1  
    37    2   35 1  
    38    3   36 1  
    39    4   37 1  
    40    5   38 1  
    41    6   39 1  
    42    6   40 1  
    43    7   41 1  
    44    8   42 1  
    45    9   43 1  
    46   10   44 1  
    47   11   45 1  
    48   12   46 1  
    49   12   47 1  
    50   13   48 1  
    51   14   49 1  
    52   15   50 1  
    53   16   51 1  
    54   17   52 1  
    55   18   53 1  
    56   18   54 1  
    57   19   55 1  
    58   19   56 1  
    59   19   57 1  
    60   20   58 1  
    61   20   59 1  
    62   20   60 1  
    63   21   61 1  
    64   21   62 1  
    65   21   63 1  
    66   22   64 1  
    67   22   65 1  
    68   22   66 1  
    69   24   67 1  
    70   25   68 1  
    71   26   69 1  
    72   28   70 1  
    73   31   71 1  
    74   32   72 1  
    75   33   73 1  
@<TRIPOS>SUBSTRUCTURE
     1 KAN         1

