### 
### Created by X-TOOL on Mon Aug  2 16:15:32 2021
### 

@<TRIPOS>MOLECULE
6o5x_ligand
  130   130     1     0     0
SMALL
GAST_HUCK


@<TRIPOS>ATOM
      1 N         -15.8540    3.1440  -30.6150 N.4       1 MOL         0.2379
      2 CA        -15.4100    1.9270  -29.9500 C.3       1 MOL         0.0651
      3 C         -16.1000    1.7170  -28.6430 C.2       1 MOL         0.2267
      4 O         -16.6340    2.6990  -28.1120 O.2       1 MOL        -0.3907
      5 CB        -13.9230    2.0560  -29.7510 C.3       1 MOL         0.0110
      6 CG        -13.3450    2.9910  -28.7780 C.3       1 MOL        -0.0125
      7 CD        -11.8190    3.0250  -28.8120 C.3       1 MOL         0.0629
      8 NE        -11.2170    4.1950  -28.1850 N.pl3     1 MOL        -0.2723
      9 CZ         -9.9820    4.6280  -28.4880 C.cat     1 MOL         0.2882
     10 NH1        -9.4120    5.6040  -27.7850 N.pl3     1 MOL        -0.2849
     11 NH2        -9.3560    4.1190  -29.4540 N.pl3     1 MOL        -0.2849
     12 N1        -16.0840    0.5390  -28.1940 N.am      1 MOL        -0.2608
     13 CA1       -16.8350    0.1270  -27.0020 C.3       1 MOL         0.1332
     14 C1        -15.9340   -0.5470  -26.0410 C.2       1 MOL         0.2023
     15 O1        -15.5380   -1.7330  -26.1320 O.2       1 MOL        -0.3945
     16 CB1       -18.0520   -0.7570  -27.3610 C.3       1 MOL        -0.0063
     17 CG1       -18.9700   -0.0920  -28.3960 C.3       1 MOL        -0.0584
     18 CG2       -18.7450   -1.2130  -26.0520 C.3       1 MOL        -0.0584
     19 N2        -15.6420    0.1350  -24.9920 N.am      1 MOL        -0.2769
     20 CA2       -14.6770   -0.3820  -23.9750 C.3       1 MOL         0.0820
     21 C2        -15.4190   -0.7010  -22.6620 C.3       1 MOL        -0.0079
     22 CB2       -13.5480    0.6190  -23.7120 C.3       1 MOL        -0.0226
     23 CG3       -12.8610    1.0690  -25.0000 C.3       1 MOL        -0.0445
     24 CD1       -12.3340   -0.0940  -25.8530 C.3       1 MOL        -0.0626
     25 CD2       -11.8080    2.0490  -24.7270 C.3       1 MOL        -0.0626
     26 N3        -16.5270   -1.6860  -22.8110 N.4       1 MOL         0.2492
     27 CA3       -16.9190   -2.6020  -21.7370 C.3       1 MOL         0.0763
     28 C3        -15.7410   -3.4290  -21.3030 C.2       1 MOL         0.2289
     29 O2        -14.9580   -3.9680  -22.1610 O.2       1 MOL        -0.3905
     30 CB3       -18.1130   -3.4350  -22.2190 C.3       1 MOL         0.0416
     31 CG4       -18.3310   -4.6620  -21.4230 C.ar      1 MOL        -0.0353
     32 CD11      -17.9920   -5.9430  -21.8440 C.ar      1 MOL        -0.0600
     33 CD21      -18.8910   -4.4700  -20.1850 C.ar      1 MOL        -0.0600
     34 CE1       -18.2250   -6.9940  -20.9690 C.ar      1 MOL        -0.0686
     35 CE2       -19.1060   -5.5300  -19.2830 C.ar      1 MOL        -0.0686
     36 CZ1       -18.7930   -6.8070  -19.6980 C.ar      1 MOL        -0.0687
     37 N4        -15.6000   -3.6290  -20.0280 N.am      1 MOL        -0.2608
     38 CA4       -14.5800   -4.4970  -19.4770 C.3       1 MOL         0.1326
     39 C4        -15.0900   -5.1710  -18.2190 C.2       1 MOL         0.2040
     40 O3        -15.7300   -4.4950  -17.3820 O.2       1 MOL        -0.3944
     41 CB4       -13.2820   -3.7570  -19.1950 C.3       1 MOL        -0.0008
     42 CG5       -12.1580   -4.4520  -18.5580 C.3       1 MOL         0.0044
     43 CD3       -12.2010   -4.6490  -17.0660 C.2       1 MOL         0.0350
     44 OE1       -11.6030   -5.6460  -16.5690 O.co2     1 MOL        -0.5690
     45 OE2       -12.8740   -3.9010  -16.3790 O.co2     1 MOL        -0.5690
     46 N5        -14.7850   -6.4280  -18.1000 N.am      1 MOL        -0.2640
     47 CA5       -15.0740   -7.1320  -16.8510 C.3       1 MOL         0.1282
     48 C5        -13.9780   -8.0850  -16.5340 C.2       1 MOL         0.2036
     49 O4        -13.2330   -8.6570  -17.3890 O.2       1 MOL        -0.3944
     50 CB5       -16.3860   -7.8470  -17.0310 C.3       1 MOL        -0.0244
     51 N6        -13.8470   -8.4410  -15.2760 N.am      1 MOL        -0.2637
     52 CA6       -12.8340   -9.3560  -14.8440 C.3       1 MOL         0.1306
     53 C6        -13.4340  -10.7640  -14.9060 C.2       1 MOL         0.1992
     54 O5        -14.6190  -11.0310  -14.4940 O.2       1 MOL        -0.3947
     55 CB6       -12.6400   -9.0480  -13.3480 C.3       1 MOL        -0.0124
     56 CG6       -11.6770   -9.9180  -12.6120 C.3       1 MOL        -0.0491
     57 CD4       -10.2340  -10.0750  -13.1560 C.3       1 MOL        -0.0557
     58 CE         -9.1950   -9.0730  -12.6430 C.3       1 MOL        -0.0653
     59 N7        -12.6880  -11.6670  -15.5210 N.am      1 MOL        -0.2990
     60 H1        -15.3645    3.2463  -31.4902 H         1 MOL         0.2015
     61 H2        -15.6594    3.9387  -30.0263 H         1 MOL         0.2015
     62 H3        -16.8454    3.0894  -30.7889 H         1 MOL         0.2015
     63 H4        -15.6203    1.0632  -30.5977 H         1 MOL         0.1098
     64 H5        -13.5046    2.3332  -30.7298 H         1 MOL         0.0347
     65 H6        -13.5627    1.0560  -29.4680 H         1 MOL         0.0347
     66 H7        -13.6658    2.6897  -27.7699 H         1 MOL         0.0302
     67 H8        -13.7224    4.0009  -28.9964 H         1 MOL         0.0302
     68 H9        -11.5000    2.9993  -29.8644 H         1 MOL         0.0689
     69 H10       -11.4456    2.1295  -28.2936 H         1 MOL         0.0689
     70 H11       -11.7616    4.7117  -27.4797 H         1 MOL         0.2642
     71 H12        -8.4645    5.9274  -28.0271 H         1 MOL         0.2615
     72 H13        -9.9184    6.0359  -26.9989 H         1 MOL         0.2615
     73 H14        -9.7864    3.3631  -30.0056 H         1 MOL         0.2615
     74 H15        -8.4133    4.4583  -29.6929 H         1 MOL         0.2615
     75 H16       -15.5344   -0.1462  -28.6719 H         1 MOL         0.1885
     76 H17       -17.2208    1.0368  -26.5188 H         1 MOL         0.0802
     77 H18       -17.6628   -1.6660  -27.8429 H         1 MOL         0.0343
     78 H19       -19.8170   -0.7583  -28.6166 H         1 MOL         0.0234
     79 H20       -18.4036    0.0990  -29.3194 H         1 MOL         0.0234
     80 H21       -19.3473    0.8597  -27.9937 H         1 MOL         0.0234
     81 H22       -18.0015   -1.6733  -25.3847 H         1 MOL         0.0234
     82 H23       -19.5293   -1.9470  -26.2888 H         1 MOL         0.0234
     83 H24       -19.1960   -0.3424  -25.5534 H         1 MOL         0.0234
     84 H25       -16.0686    1.0288  -24.8535 H         1 MOL         0.1857
     85 H26       -14.2318   -1.3108  -24.3612 H         1 MOL         0.0609
     86 H27       -15.8405    0.2353  -22.2675 H         1 MOL         0.0837
     87 H28       -14.6910   -1.1066  -21.9440 H         1 MOL         0.0837
     88 H29       -12.8002    0.1454  -23.0590 H         1 MOL         0.0292
     89 H30       -13.9682    1.5019  -23.2081 H         1 MOL         0.0292
     90 H31       -13.6269    1.5787  -25.6029 H         1 MOL         0.0296
     91 H32       -11.8545    0.3040  -26.7595 H         1 MOL         0.0232
     92 H33       -13.1710   -0.7483  -26.1381 H         1 MOL         0.0232
     93 H34       -11.5989   -0.6708  -25.2725 H         1 MOL         0.0232
     94 H35       -12.2176    2.8666  -24.1157 H         1 MOL         0.0232
     95 H36       -11.4300    2.4553  -25.6768 H         1 MOL         0.0232
     96 H37       -10.9853    1.5615  -24.1834 H         1 MOL         0.0232
     97 H38       -16.2809   -2.2666  -23.5974 H         1 MOL         0.2038
     98 H39       -17.3502   -1.1489  -23.0344 H         1 MOL         0.2038
     99 H40       -17.2469   -2.0088  -20.8706 H         1 MOL         0.1123
    100 H41       -17.9366   -3.7247  -23.2654 H         1 MOL         0.0507
    101 H42       -19.0189   -2.8141  -22.1581 H         1 MOL         0.0507
    102 H43       -17.5600   -6.1148  -22.8233 H         1 MOL         0.0557
    103 H44       -19.1780   -3.4669  -19.8909 H         1 MOL         0.0557
    104 H45       -17.9585   -7.9982  -21.2781 H         1 MOL         0.0599
    105 H46       -19.5056   -5.3473  -18.2920 H         1 MOL         0.0599
    106 H47       -18.9829   -7.6561  -19.0515 H         1 MOL         0.0559
    107 H48       -16.2227   -3.1635  -19.3991 H         1 MOL         0.1885
    108 H49       -14.3654   -5.2779  -20.2214 H         1 MOL         0.0801
    109 H50       -13.5373   -2.9069  -18.5453 H         1 MOL         0.0330
    110 H51       -12.9150   -3.3823  -20.1619 H         1 MOL         0.0330
    111 H52       -11.2476   -3.8782  -18.7857 H         1 MOL         0.0433
    112 H53       -12.0876   -5.4490  -19.0173 H         1 MOL         0.0433
    113 H54       -14.3536   -6.9132  -18.8606 H         1 MOL         0.1883
    114 H55       -15.1629   -6.4061  -16.0293 H         1 MOL         0.0797
    115 H56       -16.6373   -8.3900  -16.1080 H         1 MOL         0.0277
    116 H57       -16.3038   -8.5597  -17.8648 H         1 MOL         0.0277
    117 H58       -17.1759   -7.1139  -17.2517 H         1 MOL         0.0277
    118 H59       -14.4756   -8.0603  -14.5978 H         1 MOL         0.1883
    119 H60       -11.9048   -9.2678  -15.4261 H         1 MOL         0.0800
    120 H61       -13.6197   -9.1427  -12.8568 H         1 MOL         0.0312
    121 H62       -12.2860   -8.0100  -13.2630 H         1 MOL         0.0312
    122 H63       -12.1177  -10.9251  -12.5737 H         1 MOL         0.0267
    123 H64       -11.5941   -9.5150  -11.5919 H         1 MOL         0.0267
    124 H65       -10.2778   -9.9792  -14.2509 H         1 MOL         0.0263
    125 H66        -9.8848  -11.0836  -12.8898 H         1 MOL         0.0263
    126 H67        -8.2188   -9.2902  -13.1011 H         1 MOL         0.0230
    127 H68        -9.1135   -9.1568  -11.5492 H         1 MOL         0.0230
    128 H69        -9.5065   -8.0525  -12.9104 H         1 MOL         0.0230
    129 H70       -13.0104  -12.6100  -15.6030 H         1 MOL         0.1815
    130 H71       -11.8017  -11.4065  -15.9039 H         1 MOL         0.1815
@<TRIPOS>BOND
     1    1    2 1  
     2    2    3 1  
     3    2    5 1  
     4    3    4 2  
     5    3   12 am 
     6    5    6 1  
     7    6    7 1  
     8    7    8 1  
     9    8    9 ar 
    10    9   10 ar 
    11    9   11 ar 
    12   12   13 1  
    13   13   14 1  
    14   13   16 1  
    15   14   15 2  
    16   14   19 am 
    17   16   17 1  
    18   16   18 1  
    19   19   20 1  
    20   20   21 1  
    21   20   22 1  
    22   21   26 1  
    23   22   23 1  
    24   23   24 1  
    25   23   25 1  
    26   26   27 1  
    27   27   28 1  
    28   27   30 1  
    29   28   29 2  
    30   28   37 am 
    31   30   31 1  
    32   31   32 ar 
    33   31   33 ar 
    34   32   34 ar 
    35   33   35 ar 
    36   34   36 ar 
    37   35   36 ar 
    38   37   38 1  
    39   38   39 1  
    40   38   41 1  
    41   39   40 2  
    42   39   46 am 
    43   41   42 1  
    44   42   43 1  
    45   43   44 ar 
    46   43   45 ar 
    47   46   47 1  
    48   47   48 1  
    49   47   50 1  
    50   48   49 2  
    51   48   51 am 
    52   51   52 1  
    53   52   53 1  
    54   52   55 1  
    55   53   54 2  
    56   53   59 am 
    57   55   56 1  
    58   56   57 1  
    59   57   58 1  
    60    1   60 1  
    61    1   61 1  
    62    1   62 1  
    63    2   63 1  
    64    5   64 1  
    65    5   65 1  
    66    6   66 1  
    67    6   67 1  
    68    7   68 1  
    69    7   69 1  
    70    8   70 1  
    71   10   71 1  
    72   10   72 1  
    73   11   73 1  
    74   11   74 1  
    75   12   75 1  
    76   13   76 1  
    77   16   77 1  
    78   17   78 1  
    79   17   79 1  
    80   17   80 1  
    81   18   81 1  
    82   18   82 1  
    83   18   83 1  
    84   19   84 1  
    85   20   85 1  
    86   21   86 1  
    87   21   87 1  
    88   22   88 1  
    89   22   89 1  
    90   23   90 1  
    91   24   91 1  
    92   24   92 1  
    93   24   93 1  
    94   25   94 1  
    95   25   95 1  
    96   25   96 1  
    97   26   97 1  
    98   26   98 1  
    99   27   99 1  
   100   30  100 1  
   101   30  101 1  
   102   32  102 1  
   103   33  103 1  
   104   34  104 1  
   105   35  105 1  
   106   36  106 1  
   107   37  107 1  
   108   38  108 1  
   109   41  109 1  
   110   41  110 1  
   111   42  111 1  
   112   42  112 1  
   113   46  113 1  
   114   47  114 1  
   115   50  115 1  
   116   50  116 1  
   117   50  117 1  
   118   51  118 1  
   119   52  119 1  
   120   55  120 1  
   121   55  121 1  
   122   56  122 1  
   123   56  123 1  
   124   57  124 1  
   125   57  125 1  
   126   58  126 1  
   127   58  127 1  
   128   58  128 1  
   129   59  129 1  
   130   59  130 1  
@<TRIPOS>SUBSTRUCTURE
     1 MOL         1

