### 
### Created by X-TOOL on Mon Aug  2 16:15:32 2021
### 

@<TRIPOS>MOLECULE
6o68_ligand
   46    48     1     0     0
SMALL
GAST_HUCK


@<TRIPOS>ATOM
      1 C10        15.0510   66.5860    9.1400 C.ar      1 LO4         0.0837
      2 C13        16.0170   69.1180    8.6670 C.ar      1 LO4        -0.0525
      3 C15        14.1610   67.6190    8.9440 C.ar      1 LO4        -0.0399
      4 C17        16.0250   71.5520    9.4130 C.2       1 LO4         0.0320
      5 C21        14.8250   72.9460   11.1600 C.2       1 LO4         0.2624
      6 C01        16.5140   64.8140   11.1040 C.3       1 LO4        -0.0571
      7 C02        16.4820   63.8370    9.9690 C.3       1 LO4        -0.0045
      8 C03        16.2140   62.4630   10.5380 C.3       1 LO4        -0.0452
      9 C04        17.3690   62.0570   11.4030 C.3       1 LO4        -0.0525
     10 C05        18.5820   61.8840   10.5370 C.3       1 LO4        -0.0530
     11 C06        18.9920   63.2090    9.9510 C.3       1 LO4        -0.0525
     12 C07        17.8220   63.8700    9.2430 C.3       1 LO4        -0.0452
     13 C08        15.3580   64.2380    8.9980 C.3       1 LO4         0.0742
     14 C11        16.4050   66.8160    9.0900 C.ar      1 LO4        -0.0399
     15 C12        16.8880   68.0760    8.8460 C.ar      1 LO4        -0.0685
     16 C14        14.6540   68.8870    8.7100 C.ar      1 LO4        -0.0685
     17 C16        16.5780   70.5110    8.4220 C.3       1 LO4        -0.0098
     18 C18        16.4800   72.8670    9.6370 C.2       1 LO4         0.1721
     19 N20        15.8270   73.5700   10.5700 N.am      1 LO4        -0.2144
     20 O09        14.5650   65.3090    9.3940 O.3       1 LO4        -0.3221
     21 O19        17.5370   73.4640    8.9840 O.3       1 LO4        -0.3282
     22 O22        14.0150   73.5160   12.1460 O.2       1 LO4        -0.3848
     23 S23        14.7390   71.4030   10.4920 S.3       1 LO4        -0.0169
     24 H1         13.0924   67.4393    8.9730 H         1 LO4         0.0524
     25 H2         17.3151   64.5359   11.8047 H         1 LO4         0.0236
     26 H3         15.5470   64.7991   11.6281 H         1 LO4         0.0236
     27 H4         16.7035   65.8245   10.7128 H         1 LO4         0.0236
     28 H5         16.0969   61.7405    9.7168 H         1 LO4         0.0271
     29 H6         15.2935   62.4865   11.1397 H         1 LO4         0.0271
     30 H7         17.1370   61.1081   11.9086 H         1 LO4         0.0265
     31 H8         17.5597   62.8364   12.1554 H         1 LO4         0.0265
     32 H9         18.3505   61.1819    9.7225 H         1 LO4         0.0265
     33 H10        19.4077   61.4831   11.1431 H         1 LO4         0.0265
     34 H11        19.8061   63.0478    9.2290 H         1 LO4         0.0265
     35 H12        19.3434   63.8676   10.7589 H         1 LO4         0.0265
     36 H13        18.0855   64.9247    9.0751 H         1 LO4         0.0271
     37 H14        17.6898   63.3664    8.2741 H         1 LO4         0.0271
     38 H15        14.7022   63.3652    8.8632 H         1 LO4         0.0616
     39 H16        15.8219   64.5003    8.0357 H         1 LO4         0.0616
     40 H17        17.0962   65.9954    9.2446 H         1 LO4         0.0524
     41 H18        17.9572   68.2472    8.7949 H         1 LO4         0.0528
     42 H19        13.9655   69.7105    8.5583 H         1 LO4         0.0528
     43 H20        16.3154   70.8224    7.4002 H         1 LO4         0.0448
     44 H21        17.6726   70.4735    8.5241 H         1 LO4         0.0448
     45 H22        16.0820   74.5080   10.8050 H         1 LO4         0.2260
     46 H23        17.9036   72.8546    8.3541 H         1 LO4         0.2431
@<TRIPOS>BOND
     1    1    3 ar 
     2    1   14 ar 
     3   20    1 1  
     4    2   15 ar 
     5   16    2 ar 
     6    2   17 1  
     7    3   16 ar 
     8   17    4 1  
     9    4   18 2  
    10    4   23 1  
    11    5   19 am 
    12    5   22 2  
    13   23    5 1  
    14    7    6 1  
    15    7    8 1  
    16    7   12 1  
    17   13    7 1  
    18    8    9 1  
    19    9   10 1  
    20   11   10 1  
    21   12   11 1  
    22   13   20 1  
    23   14   15 ar 
    24   18   19 1  
    25   18   21 1  
    26    3   24 1  
    27    6   25 1  
    28    6   26 1  
    29    6   27 1  
    30    8   28 1  
    31    8   29 1  
    32    9   30 1  
    33    9   31 1  
    34   10   32 1  
    35   10   33 1  
    36   11   34 1  
    37   11   35 1  
    38   12   36 1  
    39   12   37 1  
    40   13   38 1  
    41   13   39 1  
    42   14   40 1  
    43   15   41 1  
    44   16   42 1  
    45   17   43 1  
    46   17   44 1  
    47   19   45 1  
    48   21   46 1  
@<TRIPOS>SUBSTRUCTURE
     1 LO4         1

