### 
### Created by X-TOOL on Mon Aug  2 16:15:32 2021
### 

@<TRIPOS>MOLECULE
6o6f_ligand
   51    55     1     0     0
SMALL
GAST_HUCK


@<TRIPOS>ATOM
      1 C1        -11.8980   10.4690  -16.0080 C.ar      1 LOD        -0.0253
      2 C2        -10.6070   10.6280  -16.5430 C.ar      1 LOD         0.0648
      3 C3        -10.2880   10.3380  -17.8770 C.ar      1 LOD        -0.0155
      4 C7        -17.2740    6.6600  -20.2030 C.ar      1 LOD        -0.0384
      5 C8        -18.6330    6.8900  -19.9530 C.ar      1 LOD        -0.0130
      6 C9        -19.0330    8.0110  -19.1940 C.ar      1 LOD        -0.0696
      7 C10       -18.0480    8.8860  -18.7050 C.ar      1 LOD        -0.0403
      8 C11       -14.8410   10.0440  -19.4700 C.3       1 LOD         0.0495
      9 C12       -13.8720    7.7820  -19.0120 C.3       1 LOD         0.0062
     10 C13       -16.2620    7.5190  -19.7110 C.ar      1 LOD         0.0736
     11 C14       -16.6780    8.6630  -18.9610 C.ar      1 LOD         0.1112
     12 C15       -13.5410    9.2150  -19.2930 C.3       1 LOD         0.0058
     13 C16       -19.6830    6.0020  -20.4560 C.2       1 LOD         0.0526
     14 C19       -14.6420    4.7450  -20.0320 C.3       1 LOD        -0.0218
     15 C20       -14.2980    3.4380  -20.7870 C.3       1 LOD        -0.0484
     16 C21       -13.7810    2.8360  -19.4570 C.3       1 LOD        -0.0524
     17 C22       -11.1950    9.4860  -20.1280 C.3       1 LOD        -0.0117
     18 N1        -14.9150    7.1780  -19.8480 N.pl3     1 LOD        -0.3199
     19 O1        -15.7880    9.6320  -18.4860 O.3       1 LOD        -0.3308
     20 O2        -20.7980    6.0910  -20.0630 O.co2     1 LOD        -0.5637
     21 O3        -19.3300    5.1080  -21.3690 O.co2     1 LOD        -0.5637
     22 C17       -14.4410    6.1150  -20.7510 C.3       1 LOD         0.0265
     23 C18       -13.7300    4.2860  -18.8750 C.3       1 LOD        -0.0484
     24 C4        -11.3190    9.8780  -18.6920 C.ar      1 LOD        -0.0175
     25 C5        -12.6130    9.7120  -18.2160 C.ar      1 LOD        -0.0422
     26 C6        -12.9200   10.0030  -16.8690 C.ar      1 LOD        -0.0456
     27 CL1        -9.3710   11.2480  -15.5230 Cl        1 LOD        -0.0445
     28 C23       -12.6720    9.2660  -20.5630 C.3       1 LOD        -0.0562
     29 H1        -12.1039   10.6964  -14.9683 H         1 LOD         0.0653
     30 H2         -9.2813   10.4664  -18.2579 H         1 LOD         0.0639
     31 H3        -16.9880    5.7963  -20.7923 H         1 LOD         0.0512
     32 H4        -20.0822    8.1938  -18.9918 H         1 LOD         0.0513
     33 H5        -18.3461    9.7486  -18.1201 H         1 LOD         0.0511
     34 H6        -15.2543    9.8730  -20.4749 H         1 LOD         0.0504
     35 H7        -14.6174   11.1135  -19.3426 H         1 LOD         0.0504
     36 H8        -14.2012    7.7136  -17.9646 H         1 LOD         0.0405
     37 H9        -12.9525    7.1934  -19.1466 H         1 LOD         0.0405
     38 H10       -15.6939    4.7481  -19.7103 H         1 LOD         0.0319
     39 H11       -13.5261    3.5527  -21.5623 H         1 LOD         0.0269
     40 H12       -15.1692    2.9174  -21.2111 H         1 LOD         0.0269
     41 H13       -12.8020    2.3401  -19.5313 H         1 LOD         0.0265
     42 H14       -14.4935    2.1671  -18.9521 H         1 LOD         0.0265
     43 H15       -10.6098    8.5608  -20.2356 H         1 LOD         0.0494
     44 H16       -10.7253   10.2876  -20.7169 H         1 LOD         0.0494
     45 H17       -15.0200    6.1341  -21.6861 H         1 LOD         0.0511
     46 H18       -13.3749    6.2651  -20.9767 H         1 LOD         0.0511
     47 H19       -14.1773    4.3901  -17.8755 H         1 LOD         0.0269
     48 H20       -12.7287    4.7415  -18.8779 H         1 LOD         0.0269
     49 H21       -13.9297    9.8706  -16.4975 H         1 LOD         0.0815
     50 H22       -12.9992   10.0965  -21.2058 H         1 LOD         0.0195
     51 H23       -12.7612    8.3184  -21.1144 H         1 LOD         0.0195
@<TRIPOS>BOND
     1    2    1 ar 
     2    1   26 ar 
     3    3    2 ar 
     4    2   27 1  
     5   24    3 ar 
     6    4    5 ar 
     7   10    4 ar 
     8    5    6 ar 
     9    5   13 1  
    10    7    6 ar 
    11   11    7 ar 
    12   12    8 1  
    13   19    8 1  
    14    9   12 1  
    15   18    9 1  
    16   10   11 ar 
    17   18   10 1  
    18   11   19 1  
    19   12   25 1  
    20   12   28 1  
    21   13   20 ar 
    22   13   21 ar 
    23   14   15 1  
    24   22   14 1  
    25   14   23 1  
    26   15   16 1  
    27   23   16 1  
    28   17   24 1  
    29   28   17 1  
    30   18   22 1  
    31   24   25 ar 
    32   25   26 ar 
    33    1   29 1  
    34    3   30 1  
    35    4   31 1  
    36    6   32 1  
    37    7   33 1  
    38    8   34 1  
    39    8   35 1  
    40    9   36 1  
    41    9   37 1  
    42   14   38 1  
    43   15   39 1  
    44   15   40 1  
    45   16   41 1  
    46   16   42 1  
    47   17   43 1  
    48   17   44 1  
    49   22   45 1  
    50   22   46 1  
    51   23   47 1  
    52   23   48 1  
    53   26   49 1  
    54   28   50 1  
    55   28   51 1  
@<TRIPOS>SUBSTRUCTURE
     1 LOD         1

