### 
### Created by X-TOOL on Mon Aug  2 16:15:32 2021
### 

@<TRIPOS>MOLECULE
6o6g_ligand
   47    50     1     0     0
SMALL
GAST_HUCK


@<TRIPOS>ATOM
      1 C1         19.7960   -5.8930   19.3360 C.ar      1 LOJ        -0.0406
      2 C2         20.0350   -5.1700   18.1660 C.ar      1 LOJ         0.0335
      3 C3         19.3800   -3.9600   17.9100 C.ar      1 LOJ        -0.0544
      4 C7         15.3270   -0.0380   23.2200 C.ar      1 LOJ        -0.0384
      5 C8         14.2930    0.8110   22.8120 C.ar      1 LOJ        -0.0130
      6 C9         13.8580    0.8240   21.4910 C.ar      1 LOJ        -0.0696
      7 C10        14.4670   -0.0580   20.5920 C.ar      1 LOJ        -0.0402
      8 C11        15.8900   -3.1560   20.4200 C.3       1 LOJ         0.0824
      9 C12        18.0240   -2.3870   21.8440 C.3       1 LOJ         0.0396
     10 C13        15.9740   -0.9440   22.3350 C.ar      1 LOJ         0.0746
     11 C14        15.4990   -0.9370   20.9850 C.ar      1 LOJ         0.1127
     12 C15        17.2940   -3.5250   21.0750 C.3       1 LOJ         0.0401
     13 C16        13.6660    1.6370   23.7850 C.2       1 LOJ         0.0526
     14 C19        18.2840   -0.4760   24.6320 C.3       1 LOJ        -0.0217
     15 C20        19.1660   -0.5230   25.8660 C.3       1 LOJ        -0.0484
     16 C21        20.3910   -0.6570   24.9380 C.3       1 LOJ        -0.0524
     17 N1         17.0510   -1.7860   22.7830 N.pl3     1 LOJ        -0.3089
     18 O1         15.9110   -1.8110   19.9780 O.3       1 LOJ        -0.3191
     19 O2         13.2380    2.6570   23.4220 O.co2     1 LOJ        -0.5637
     20 O3         13.5970    1.1830   25.0640 O.co2     1 LOJ        -0.5637
     21 C17        17.4960   -1.7330   24.2100 C.3       1 LOJ         0.0277
     22 C18        19.5300   -0.1580   23.7920 C.3       1 LOJ        -0.0484
     23 C4         18.4820   -3.4530   18.8600 C.ar      1 LOJ        -0.0587
     24 C5         18.2320   -4.1510   20.0790 C.ar      1 LOJ        -0.0212
     25 C6         18.9130   -5.3810   20.2800 C.ar      1 LOJ         0.0422
     26 CL1        18.7880   -6.3390   21.7180 Cl        1 LOJ        -0.0771
     27 CL2        21.2460   -5.5840   16.9640 Cl        1 LOJ        -0.0770
     28 H1         20.2925   -6.8414   19.5063 H         1 LOJ         0.0612
     29 H2         19.5648   -3.4210   16.9879 H         1 LOJ         0.0607
     30 H3         15.6488   -0.0040   24.2546 H         1 LOJ         0.0512
     31 H4         13.0716    1.4966   21.1681 H         1 LOJ         0.0513
     32 H5         14.1355   -0.0666   19.5600 H         1 LOJ         0.0511
     33 H6         15.0927   -3.2834   21.1670 H         1 LOJ         0.0637
     34 H7         15.6997   -3.8198   19.5637 H         1 LOJ         0.0637
     35 H8         18.3816   -1.6251   21.1358 H         1 LOJ         0.0536
     36 H9         18.8781   -2.7989   22.4016 H         1 LOJ         0.0536
     37 H10        17.0706   -4.2970   21.8261 H         1 LOJ         0.0509
     38 H11        17.5673    0.3576   24.6685 H         1 LOJ         0.0319
     39 H12        18.9914   -1.3925   26.5168 H         1 LOJ         0.0269
     40 H13        19.1518    0.3960   26.4703 H         1 LOJ         0.0269
     41 H14        20.7583   -1.6866   24.8158 H         1 LOJ         0.0265
     42 H15        21.2315    0.0039   25.1963 H         1 LOJ         0.0265
     43 H16        16.5990   -1.7951   24.8436 H         1 LOJ         0.0512
     44 H17        18.1365   -2.6081   24.3944 H         1 LOJ         0.0512
     45 H18        19.6596    0.9091   23.5585 H         1 LOJ         0.0269
     46 H19        19.6174   -0.7488   22.8683 H         1 LOJ         0.0269
     47 H20        17.9704   -2.5173   18.6655 H         1 LOJ         0.0557
@<TRIPOS>BOND
     1    2    1 ar 
     2    1   25 ar 
     3    3    2 ar 
     4    2   27 1  
     5   23    3 ar 
     6    4    5 ar 
     7   10    4 ar 
     8    5    6 ar 
     9    5   13 1  
    10    7    6 ar 
    11   11    7 ar 
    12   12    8 1  
    13    8   18 1  
    14   12    9 1  
    15    9   17 1  
    16   10   11 ar 
    17   17   10 1  
    18   18   11 1  
    19   24   12 1  
    20   13   19 ar 
    21   13   20 ar 
    22   14   15 1  
    23   21   14 1  
    24   14   22 1  
    25   15   16 1  
    26   22   16 1  
    27   17   21 1  
    28   23   24 ar 
    29   24   25 ar 
    30   25   26 1  
    31    1   28 1  
    32    3   29 1  
    33    4   30 1  
    34    6   31 1  
    35    7   32 1  
    36    8   33 1  
    37    8   34 1  
    38    9   35 1  
    39    9   36 1  
    40   12   37 1  
    41   14   38 1  
    42   15   39 1  
    43   15   40 1  
    44   16   41 1  
    45   16   42 1  
    46   21   43 1  
    47   21   44 1  
    48   22   45 1  
    49   22   46 1  
    50   23   47 1  
@<TRIPOS>SUBSTRUCTURE
     1 LOJ         1

