### 
### Created by X-TOOL on Mon Aug  2 16:10:19 2021
### 

@<TRIPOS>MOLECULE
6o8i_ligand
   52    54     1     0     0
SMALL
GAST_HUCK


@<TRIPOS>ATOM
      1 C13        22.4720   -8.7410   -1.2980 C.3       1 LTJ         0.0604
      2 C18        22.5870  -12.5860   -0.6470 C.2       1 LTJ        -0.0032
      3 C17        21.0670   -6.8390    1.7370 C.3       1 LTJ        -0.0556
      4 C16        18.9170   -5.9360    3.8390 C.3       1 LTJ        -0.0156
      5 C15        22.2030  -11.1250   -0.4320 C.2       1 LTJ         0.1762
      6 C19        22.0230  -13.6140   -0.0390 C.2       1 LTJ        -0.0626
      7 C20        22.5580  -15.0100   -0.3420 C.3       1 LTJ        -0.0267
      8 C11        23.2330   -6.4870   -2.1420 C.3       1 LTJ        -0.0310
      9 C12        23.4210   -8.0070   -2.2560 C.3       1 LTJ        -0.0264
     10 C1         19.5730   -6.3920   -1.1820 C.ar      1 LTJ         0.0674
     11 N1         20.8930   -6.9000   -1.5050 N.pl3     1 LTJ        -0.3073
     12 C2         18.6650   -6.1300   -2.2160 C.ar      1 LTJ         0.1337
     13 C3         17.3810   -5.6530   -2.0090 C.ar      1 LTJ        -0.0378
     14 C4         16.9640   -5.4630   -0.7040 C.ar      1 LTJ         0.0470
     15 C5         17.8410   -5.7360    0.3390 C.ar      1 LTJ         0.0621
     16 C6         19.1700   -6.2370    0.1560 C.ar      1 LTJ        -0.0045
     17 C7         15.5540   -4.9560   -0.3910 C.2       1 LTJ         0.1835
     18 O1         15.3170   -4.5100    0.6920 O.2       1 LTJ        -0.3973
     19 N2         14.5270   -5.0430   -1.4060 N.am      1 LTJ        -0.3041
     20 F1         19.0140   -6.3360   -3.5140 F         1 LTJ        -0.2050
     21 N3         17.6420   -5.6600    1.7130 N.pl3     1 LTJ        -0.2863
     22 C8         18.7790   -5.9860    2.3170 C.2       1 LTJ         0.0289
     23 C9         19.6380   -6.3570    1.3950 C.2       1 LTJ        -0.0557
     24 C10        21.7670   -6.0880   -2.3550 C.3       1 LTJ         0.0270
     25 C14        21.0210   -8.3460   -1.5730 C.3       1 LTJ         0.0496
     26 N4         22.6940  -10.1770   -1.4050 N.am      1 LTJ        -0.2867
     27 O2         21.5340  -10.7650    0.4870 O.2       1 LTJ        -0.4012
     28 H1         22.7130   -8.4361   -0.2690 H         1 LTJ         0.0574
     29 H2         23.3867  -12.7971   -1.3554 H         1 LTJ         0.0472
     30 H3         21.5996   -7.0947    0.8091 H         1 LTJ         0.0287
     31 H4         21.0095   -7.7272    2.3834 H         1 LTJ         0.0287
     32 H5         21.6084   -6.0380    2.2617 H         1 LTJ         0.0287
     33 H6         19.9337   -6.2432    4.1252 H         1 LTJ         0.0394
     34 H7         18.1854   -6.6185    4.2962 H         1 LTJ         0.0394
     35 H8         18.7313   -4.9104    4.1905 H         1 LTJ         0.0394
     36 H9         21.1995  -13.4691    0.6587 H         1 LTJ         0.0843
     37 H10        21.9903  -15.7537    0.2364 H         1 LTJ         0.0453
     38 H11        23.6211  -15.0635   -0.0646 H         1 LTJ         0.0453
     39 H12        22.4484  -15.2195   -1.4163 H         1 LTJ         0.0453
     40 H13        23.8532   -5.9913   -2.9033 H         1 LTJ         0.0285
     41 H14        23.5510   -6.1609   -1.1407 H         1 LTJ         0.0285
     42 H15        23.2074   -8.3214   -3.2882 H         1 LTJ         0.0289
     43 H16        24.4603   -8.2629   -2.0023 H         1 LTJ         0.0289
     44 H17        16.7239   -5.4356   -2.8433 H         1 LTJ         0.0527
     45 H18        13.6027   -4.7146   -1.2115 H         1 LTJ         0.1799
     46 H19        14.7413   -5.4316   -2.3022 H         1 LTJ         0.1799
     47 H20        16.7637   -5.3962    2.1819 H         1 LTJ         0.2207
     48 H21        21.4970   -6.2459   -3.4096 H         1 LTJ         0.0516
     49 H22        21.6385   -5.0260   -2.0987 H         1 LTJ         0.0516
     50 H23        20.3658   -8.8082   -0.8199 H         1 LTJ         0.0538
     51 H24        20.7297   -8.6934   -2.5752 H         1 LTJ         0.0538
     52 H25        23.2104  -10.5224   -2.1886 H         1 LTJ         0.1835
@<TRIPOS>BOND
     1    1    9 1  
     2   25    1 1  
     3    1   26 1  
     4    5    2 1  
     5    2    6 2  
     6   23    3 1  
     7   22    4 1  
     8   26    5 am 
     9    5   27 2  
    10    6    7 1  
    11    8    9 1  
    12   24    8 1  
    13   10   11 1  
    14   10   12 ar 
    15   16   10 ar 
    16   11   24 1  
    17   11   25 1  
    18   13   12 ar 
    19   12   20 1  
    20   14   13 ar 
    21   15   14 ar 
    22   14   17 1  
    23   15   16 ar 
    24   21   15 1  
    25   16   23 1  
    26   17   18 2  
    27   17   19 am 
    28   21   22 1  
    29   22   23 2  
    30    1   28 1  
    31    2   29 1  
    32    3   30 1  
    33    3   31 1  
    34    3   32 1  
    35    4   33 1  
    36    4   34 1  
    37    4   35 1  
    38    6   36 1  
    39    7   37 1  
    40    7   38 1  
    41    7   39 1  
    42    8   40 1  
    43    8   41 1  
    44    9   42 1  
    45    9   43 1  
    46   13   44 1  
    47   19   45 1  
    48   19   46 1  
    49   21   47 1  
    50   24   48 1  
    51   24   49 1  
    52   25   50 1  
    53   25   51 1  
    54   26   52 1  
@<TRIPOS>SUBSTRUCTURE
     1 LTJ         1

