### 
### Created by X-TOOL on Mon Aug  2 16:15:32 2021
### 

@<TRIPOS>MOLECULE
6o8u_ligand
   52    56     1     0     0
SMALL
GAST_HUCK


@<TRIPOS>ATOM
      1 C4         36.2980    7.9250   21.3870 C.ar      1 LS7        -0.0365
      2 C5         37.1300    7.8190   20.2820 C.ar      1 LS7        -0.0580
      3 C6         37.5580    6.5720   19.8150 C.ar      1 LS7         0.0672
      4 C7         37.1160    5.4100   20.4830 C.ar      1 LS7         0.0486
      5 C8         36.2730    5.5270   21.5970 C.ar      1 LS7        -0.0338
      6 C9         35.8600    6.7830   22.0560 C.ar      1 LS7         0.0674
      7 C12        38.3580    3.3730   20.9820 C.3       1 LS7         0.0463
      8 C13        38.8850    2.0840   20.3300 C.3       1 LS7         0.0667
      9 C3         35.6970    9.1270   22.0900 C.3       1 LS7         0.0022
     10 C1         35.7390    8.8850   24.6070 C.3       1 LS7        -0.0310
     11 C2         34.9940    8.5100   23.3260 C.3       1 LS7         0.0874
     12 O10        35.0520    7.0900   23.1080 O.3       1 LS7        -0.3270
     13 N11        37.5390    4.1450   20.0130 N.pl3     1 LS7        -0.3149
     14 O14        37.8020    1.3830   19.6950 O.3       1 LS7        -0.3760
     15 C15        37.0820    2.1110   18.6860 C.3       1 LS7         0.0667
     16 C16        36.4800    3.3780   19.3140 C.3       1 LS7         0.0463
     17 N17        38.3930    6.4180   18.6810 N.am      1 LS7        -0.2525
     18 C18        39.1320    7.3350   18.0020 C.2       1 LS7         0.1946
     19 O19        39.1750    8.5130   18.3080 O.2       1 LS7        -0.4002
     20 C20        39.8890    6.8680   16.8330 C.2       1 LS7         0.0790
     21 C21        40.3230    7.6520   15.7490 C.2       1 LS7         0.0044
     22 N22        40.9480    6.8860   14.8950 N.2       1 LS7        -0.2029
     23 N23        40.9570    5.5660   15.3570 N.pl3     1 LS7        -0.1273
     24 C24        40.3020    5.5470   16.5640 C.2       1 LS7         0.1865
     25 N25        40.1580    4.3950   17.2300 N.2       1 LS7        -0.2613
     26 C26        40.6520    3.2730   16.7310 C.2       1 LS7         0.0175
     27 C27        41.3330    3.2490   15.4990 C.2       1 LS7         0.0107
     28 C28        41.4810    4.4200   14.8180 C.2       1 LS7         0.1171
     29 C29        33.5340    8.9620   23.4100 C.3       1 LS7        -0.0310
     30 H1         37.4542    8.7186   19.7714 H         1 LS7         0.0378
     31 H2         35.9367    4.6330   22.1096 H         1 LS7         0.0382
     32 H3         39.2092    3.9884   21.3085 H         1 LS7         0.0529
     33 H4         37.7389    3.1119   21.8529 H         1 LS7         0.0529
     34 H5         39.3337    1.4412   21.1016 H         1 LS7         0.0579
     35 H6         39.6458    2.3396   19.5777 H         1 LS7         0.0579
     36 H7         34.9721    9.6401   21.4410 H         1 LS7         0.0408
     37 H8         36.4806    9.8355   22.3965 H         1 LS7         0.0408
     38 H9         35.2271    8.4394   25.4727 H         1 LS7         0.0262
     39 H10        35.7557    9.9796   24.7144 H         1 LS7         0.0262
     40 H11        36.7703    8.5058   24.5558 H         1 LS7         0.0262
     41 H12        36.2757    1.4812   18.2821 H         1 LS7         0.0579
     42 H13        37.7688    2.3928   17.8743 H         1 LS7         0.0579
     43 H14        36.0383    4.0026   18.5236 H         1 LS7         0.0529
     44 H15        35.6997    3.0926   20.0349 H         1 LS7         0.0529
     45 H16        38.4475    5.4859   18.3228 H         1 LS7         0.2162
     46 H17        40.1639    8.7237   15.6393 H         1 LS7         0.0692
     47 H18        40.5286    2.3450   17.2874 H         1 LS7         0.1000
     48 H19        41.7317    2.3174   15.1001 H         1 LS7         0.0622
     49 H20        42.0055    4.4448   13.8639 H         1 LS7         0.1382
     50 H21        33.0108    8.6859   22.4826 H         1 LS7         0.0262
     51 H22        33.4950   10.0533   23.5420 H         1 LS7         0.0262
     52 H23        33.0469    8.4715   24.2657 H         1 LS7         0.0262
@<TRIPOS>BOND
     1    2    1 ar 
     2    6    1 ar 
     3    1    9 1  
     4    3    2 ar 
     5    4    3 ar 
     6    3   17 1  
     7    4    5 ar 
     8   13    4 1  
     9    5    6 ar 
    10    6   12 1  
    11    7    8 1  
    12    7   13 1  
    13    8   14 1  
    14    9   11 1  
    15   11   10 1  
    16   11   12 1  
    17   11   29 1  
    18   13   16 1  
    19   14   15 1  
    20   15   16 1  
    21   17   18 am 
    22   18   19 2  
    23   18   20 1  
    24   20   21 1  
    25   20   24 2  
    26   21   22 2  
    27   22   23 1  
    28   23   24 1  
    29   23   28 1  
    30   24   25 1  
    31   25   26 2  
    32   26   27 1  
    33   27   28 2  
    34    2   30 1  
    35    5   31 1  
    36    7   32 1  
    37    7   33 1  
    38    8   34 1  
    39    8   35 1  
    40    9   36 1  
    41    9   37 1  
    42   10   38 1  
    43   10   39 1  
    44   10   40 1  
    45   15   41 1  
    46   15   42 1  
    47   16   43 1  
    48   16   44 1  
    49   17   45 1  
    50   21   46 1  
    51   26   47 1  
    52   27   48 1  
    53   28   49 1  
    54   29   50 1  
    55   29   51 1  
    56   29   52 1  
@<TRIPOS>SUBSTRUCTURE
     1 LS7         1

