### 
### Created by X-TOOL on Mon Aug  2 16:15:32 2021
### 

@<TRIPOS>MOLECULE
6o94_ligand
   66    71     1     0     0
SMALL
GAST_HUCK


@<TRIPOS>ATOM
      1 C4         17.3680   -6.9150    6.6660 C.ar      1 LRS         0.0470
      2 C14        18.0310   -2.7910    5.7070 C.3       1 LRS        -0.0143
      3 C5         16.7160   -6.9260    7.9020 C.ar      1 LRS        -0.0623
      4 C6         16.4020   -8.1460    8.4930 C.ar      1 LRS        -0.0144
      5 C11        14.2440   -9.8850   11.7750 C.3       1 LRS         0.0590
      6 C7         15.7430   -9.7140    9.7880 C.2       1 LRS         0.2094
      7 C8         16.0270  -11.5730   11.4660 C.3       1 LRS         0.0590
      8 C9         16.3950  -11.3410   12.9060 C.3       1 LRS         0.0684
      9 C10        14.7090   -9.7570   13.1980 C.3       1 LRS         0.0684
     10 C12        18.7610   -4.9530    6.8260 C.3       1 LRS         0.0230
     11 C13        19.2120   -3.6680    6.1280 C.3       1 LRS        -0.0290
     12 N1         15.7850   -8.4080    9.7080 N.2       1 LRS        -0.3284
     13 N2         15.3330  -10.3920   10.9290 N.pl3     1 LRS        -0.2597
     14 C3         17.7030   -8.1180    6.0220 C.ar      1 LRS         0.0705
     15 N3         17.7540   -5.6900    6.0490 N.pl3     1 LRS        -0.3195
     16 O2         18.7470  -10.2140    4.1630 O.2       1 LRS        -0.3995
     17 C18        18.9150   -9.0070    3.9840 C.2       1 LRS         0.1959
     18 C19        19.7890   -8.5180    2.8670 C.2       1 LRS         0.0793
     19 C21        19.9270   -7.2080    2.3920 C.2       1 LRS         0.1865
     20 N7         19.3890   -6.0540    2.8210 N.2       1 LRS        -0.2613
     21 C22        19.8030   -4.9290    2.2130 C.2       1 LRS         0.0175
     22 C23        20.7260   -4.9000    1.1710 C.2       1 LRS         0.0107
     23 C24        21.2540   -6.1040    0.7520 C.2       1 LRS         0.1171
     24 N6         20.8710   -7.2710    1.3750 N.pl3     1 LRS        -0.1272
     25 N5         21.3630   -8.5430    1.1840 N.2       1 LRS        -0.2029
     26 C20        20.6900   -9.2710    2.0930 C.2       1 LRS         0.0044
     27 N4         18.3880   -8.0320    4.7810 N.am      1 LRS        -0.2503
     28 C2         17.3730   -9.3430    6.6070 C.ar      1 LRS        -0.0334
     29 C16        16.6180   -4.8800    5.5930 C.3       1 LRS         0.0230
     30 C15        17.0790   -3.6210    4.8550 C.3       1 LRS        -0.0290
     31 C17        18.4780   -1.5280    4.9840 C.3       1 LRS         0.0471
     32 O1         19.0930   -1.8030    3.7230 O.3       1 LRS        -0.3947
     33 C1         16.7240   -9.3340    7.8370 C.ar      1 LRS         0.0523
     34 N          16.2640  -10.3590    8.6670 N.pl3     1 LRS        -0.2309
     35 C          16.2160  -11.7710    8.2960 C.3       1 LRS         0.0437
     36 O          15.2530  -10.9820   13.6820 O.3       1 LRS        -0.3757
     37 H1         17.4957   -2.4801    6.6163 H         1 LRS         0.0324
     38 H2         16.4580   -5.9954    8.3944 H         1 LRS         0.0363
     39 H3         13.9267   -8.8984   11.4063 H         1 LRS         0.0549
     40 H4         13.3951  -10.5831   11.7315 H         1 LRS         0.0549
     41 H5         15.3647  -12.4484   11.3954 H         1 LRS         0.0549
     42 H6         16.9405  -11.7562   10.8812 H         1 LRS         0.0549
     43 H7         17.1347  -10.5287   12.9603 H         1 LRS         0.0580
     44 H8         16.8320  -12.2630   13.3171 H         1 LRS         0.0580
     45 H9         13.8544   -9.4715   13.8290 H         1 LRS         0.0580
     46 H10        15.4821   -8.9764   13.2526 H         1 LRS         0.0580
     47 H11        18.3304   -4.6913    7.8038 H         1 LRS         0.0505
     48 H12        19.6374   -5.6013    6.9730 H         1 LRS         0.0505
     49 H13        19.8494   -3.0957    6.8180 H         1 LRS         0.0287
     50 H14        19.7904   -3.9366    5.2318 H         1 LRS         0.0287
     51 H15        19.3909   -3.9814    2.5567 H         1 LRS         0.1000
     52 H16        21.0204   -3.9614    0.7038 H         1 LRS         0.0622
     53 H17        21.9704   -6.1313   -0.0677 H         1 LRS         0.1382
     54 H18        20.8298  -10.3437    2.2180 H         1 LRS         0.0692
     55 H19        18.5036   -7.1018    4.4328 H         1 LRS         0.2179
     56 H20        17.6168  -10.2774    6.1144 H         1 LRS         0.0369
     57 H21        16.0196   -4.5819    6.4665 H         1 LRS         0.0505
     58 H22        15.9992   -5.4846    4.9137 H         1 LRS         0.0505
     59 H23        17.5941   -3.9178    3.9295 H         1 LRS         0.0287
     60 H24        16.1986   -3.0107    4.6052 H         1 LRS         0.0287
     61 H25        19.2010   -0.9957    5.6196 H         1 LRS         0.0560
     62 H26        17.5986   -0.8893    4.8148 H         1 LRS         0.0560
     63 H27        19.3528   -0.9860    3.3138 H         1 LRS         0.2094
     64 H28        15.8121  -12.3569    9.1348 H         1 LRS         0.0556
     65 H29        17.2309  -12.1224    8.0584 H         1 LRS         0.0556
     66 H30        15.5688  -11.8970    7.4156 H         1 LRS         0.0556
@<TRIPOS>BOND
     1    1    3 ar 
     2   14    1 ar 
     3    1   15 1  
     4   11    2 1  
     5    2   30 1  
     6    2   31 1  
     7    3    4 ar 
     8    4   12 1  
     9    4   33 ar 
    10    5    9 1  
    11   13    5 1  
    12   12    6 2  
    13    6   13 1  
    14    6   34 1  
    15    7    8 1  
    16   13    7 1  
    17    8   36 1  
    18    9   36 1  
    19   10   11 1  
    20   15   10 1  
    21   27   14 1  
    22   14   28 ar 
    23   15   29 1  
    24   17   16 2  
    25   17   18 1  
    26   17   27 am 
    27   18   19 2  
    28   18   26 1  
    29   19   20 1  
    30   19   24 1  
    31   20   21 2  
    32   21   22 1  
    33   22   23 2  
    34   23   24 1  
    35   24   25 1  
    36   25   26 2  
    37   28   33 ar 
    38   29   30 1  
    39   31   32 1  
    40   33   34 1  
    41   34   35 1  
    42    2   37 1  
    43    3   38 1  
    44    5   39 1  
    45    5   40 1  
    46    7   41 1  
    47    7   42 1  
    48    8   43 1  
    49    8   44 1  
    50    9   45 1  
    51    9   46 1  
    52   10   47 1  
    53   10   48 1  
    54   11   49 1  
    55   11   50 1  
    56   21   51 1  
    57   22   52 1  
    58   23   53 1  
    59   26   54 1  
    60   27   55 1  
    61   28   56 1  
    62   29   57 1  
    63   29   58 1  
    64   30   59 1  
    65   30   60 1  
    66   31   61 1  
    67   31   62 1  
    68   32   63 1  
    69   35   64 1  
    70   35   65 1  
    71   35   66 1  
@<TRIPOS>SUBSTRUCTURE
     1 LRS         1

