### 
### Created by X-TOOL on Mon Aug  2 16:15:33 2021
### 

@<TRIPOS>MOLECULE
6o95_ligand
   53    57     1     0     0
SMALL
GAST_HUCK


@<TRIPOS>ATOM
      1 C4          3.8180   10.2030   29.6500 C.ar      1 LSV        -0.0364
      2 C5          2.9150   10.1780   30.6740 C.ar      1 LSV        -0.0580
      3 C6          2.4390    8.9890   31.1780 C.ar      1 LSV         0.0672
      4 C7          2.9330    7.8020   30.6180 C.ar      1 LSV         0.0486
      5 C8          3.8340    7.8470   29.5960 C.ar      1 LSV        -0.0338
      6 C9          4.2820    9.0340   29.0920 C.ar      1 LSV         0.0675
      7 C12         1.5850    5.8370   30.2900 C.3       1 LSV         0.0463
      8 C13         1.0790    4.6160   31.0440 C.3       1 LSV         0.0667
      9 C3          4.4710   11.3140   28.9030 C.3       1 LSV         0.0046
     10 C1          6.6570   11.0560   27.7890 C.3       1 LSV        -0.0285
     11 C2          5.2110   10.6020   27.7620 C.3       1 LSV         0.1130
     12 O10         5.1230    9.2420   28.0970 O.3       1 LSV        -0.3244
     13 N11         2.4850    6.5940   31.1220 N.pl3     1 LSV        -0.3149
     14 O14         2.0930    3.8400   31.6120 O.3       1 LSV        -0.3760
     15 C15         2.9220    4.5740   32.4370 C.3       1 LSV         0.0667
     16 C16         3.4960    5.7520   31.6840 C.3       1 LSV         0.0463
     17 N17         1.5450    8.8740   32.2440 N.am      1 LSV        -0.2525
     18 C18         0.8670    9.8290   32.8850 C.2       1 LSV         0.1946
     19 O19         0.9680   10.9500   32.6230 O.2       1 LSV        -0.4002
     20 C20         0.0720    9.4410   34.0390 C.2       1 LSV         0.0790
     21 C21        -0.3760   10.2760   35.0650 C.2       1 LSV         0.0044
     22 N22        -0.9920    9.5850   35.9230 N.2       1 LSV        -0.2029
     23 N23        -0.9970    8.2880   35.5790 N.pl3     1 LSV        -0.1273
     24 C24        -0.3300    8.1690   34.4070 C.2       1 LSV         0.1865
     25 N25        -0.1870    6.9830   33.8430 N.2       1 LSV        -0.2613
     26 C26        -0.6700    5.9140   34.3830 C.2       1 LSV         0.0175
     27 C27        -1.3760    5.9920   35.5830 C.2       1 LSV         0.0107
     28 C28        -1.5250    7.1960   36.1620 C.2       1 LSV         0.1171
     29 C29         4.5820   10.8950   26.3970 C.3       1 LSV         0.0780
     30 O30         5.1010   10.1100   25.3690 O.3       1 LSV        -0.3917
     31 H1          2.5663   11.1127   31.0981 H         1 LSV         0.0378
     32 H2          4.2031    6.9193   29.1740 H         1 LSV         0.0382
     33 H3          0.7310    6.4702   30.0077 H         1 LSV         0.0529
     34 H4          2.1153    5.5108   29.3831 H         1 LSV         0.0529
     35 H5          0.5128    3.9859   30.3423 H         1 LSV         0.0579
     36 H6          0.4126    4.9581   31.8495 H         1 LSV         0.0579
     37 H7          5.1763   11.8586   29.5479 H         1 LSV         0.0409
     38 H8          3.7208   12.0141   28.5068 H         1 LSV         0.0409
     39 H9          7.2123   10.5598   26.9794 H         1 LSV         0.0263
     40 H10         7.1064   10.7914   28.7575 H         1 LSV         0.0263
     41 H11         6.7017   12.1462   27.6496 H         1 LSV         0.0263
     42 H12         3.7434    3.9332   32.7902 H         1 LSV         0.0579
     43 H13         2.3454    4.9398   33.2994 H         1 LSV         0.0579
     44 H14         4.1060    6.3494   32.3775 H         1 LSV         0.0529
     45 H15         4.1313    5.3733   30.8697 H         1 LSV         0.0529
     46 H16         1.3903    7.9431   32.5749 H         1 LSV         0.2162
     47 H17        -0.2188   11.3524   35.1165 H         1 LSV         0.0692
     48 H18        -0.5255    4.9488   33.8998 H         1 LSV         0.1000
     49 H19        -1.7970    5.0980   36.0406 H         1 LSV         0.0622
     50 H20        -2.0712    7.2874   37.0997 H         1 LSV         0.1382
     51 H21         4.7586   11.9526   26.1514 H         1 LSV         0.0591
     52 H22         3.4998   10.7100   26.4647 H         1 LSV         0.0591
     53 H23         4.9473    9.1930   25.5639 H         1 LSV         0.2095
@<TRIPOS>BOND
     1    2    1 ar 
     2    6    1 ar 
     3    1    9 1  
     4    3    2 ar 
     5    4    3 ar 
     6    3   17 1  
     7    4    5 ar 
     8   13    4 1  
     9    5    6 ar 
    10    6   12 1  
    11    7    8 1  
    12    7   13 1  
    13    8   14 1  
    14    9   11 1  
    15   11   10 1  
    16   11   12 1  
    17   11   29 1  
    18   13   16 1  
    19   14   15 1  
    20   15   16 1  
    21   17   18 am 
    22   18   19 2  
    23   18   20 1  
    24   20   21 1  
    25   20   24 2  
    26   21   22 2  
    27   22   23 1  
    28   23   24 1  
    29   23   28 1  
    30   24   25 1  
    31   25   26 2  
    32   26   27 1  
    33   27   28 2  
    34   29   30 1  
    35    2   31 1  
    36    5   32 1  
    37    7   33 1  
    38    7   34 1  
    39    8   35 1  
    40    8   36 1  
    41    9   37 1  
    42    9   38 1  
    43   10   39 1  
    44   10   40 1  
    45   10   41 1  
    46   15   42 1  
    47   15   43 1  
    48   16   44 1  
    49   16   45 1  
    50   17   46 1  
    51   21   47 1  
    52   26   48 1  
    53   27   49 1  
    54   28   50 1  
    55   29   51 1  
    56   29   52 1  
    57   30   53 1  
@<TRIPOS>SUBSTRUCTURE
     1 LSV         1

