### 
### Created by X-TOOL on Mon Aug  2 16:15:33 2021
### 

@<TRIPOS>MOLECULE
6o9c_ligand
  134   135     1     0     0
SMALL
GAST_HUCK


@<TRIPOS>ATOM
      1 N          68.3780   10.0350   36.0470 N.4       1 THR         0.2398
      2 CA         69.5270    9.4800   35.2520 C.3       1 THR         0.0910
      3 C          69.0120    8.6200   34.1040 C.2       1 THR         0.2293
      4 O          67.9200    8.0130   34.2000 O.2       1 THR        -0.3906
      5 CB         70.4930    8.6230   36.0850 C.3       1 THR         0.1120
      6 OG1        69.7060    7.7990   36.9370 O.3       1 THR        -0.3840
      7 CG2        71.4160    9.4420   36.9570 C.3       1 THR        -0.0314
      8 N          69.8100    8.5920   33.0610 N.am      1 THR        -0.2585
      9 CA         69.5700    7.7640   31.8730 C.3       1 THR         0.1566
     10 C          69.6070    6.2870   32.2550 C.2       1 THR         0.2065
     11 O          70.1180    5.8960   33.3460 O.2       1 THR        -0.3943
     12 CB         70.5580    8.1020   30.7610 C.3       1 THR         0.0924
     13 OG1        71.8740    8.2060   31.3030 O.3       1 THR        -0.3874
     14 CG2        70.1870    9.4070   30.1030 C.3       1 THR        -0.0346
     15 N          68.9860    5.5150   31.3880 N.am      1 THR        -0.2639
     16 CA         68.8180    4.0700   31.5680 C.3       1 THR         0.1284
     17 C          70.0410    3.4260   30.9520 C.2       1 THR         0.2061
     18 O          70.7060    4.0020   30.0880 O.2       1 THR        -0.3942
     19 CB         67.5490    3.5870   30.9140 C.3       1 THR        -0.0244
     20 N          70.3810    2.2180   31.4230 N.am      1 THR        -0.2498
     21 CA         71.4230    1.4370   30.7720 C.3       1 THR         0.1338
     22 C          70.9900    0.9970   29.3680 C.2       1 THR         0.2042
     23 O          69.8590    0.6510   29.2240 O.2       1 THR        -0.3944
     24 CB         71.5890    0.2160   31.6830 C.3       1 THR        -0.0104
     25 CG         70.3030    0.1300   32.4900 C.3       1 THR        -0.0281
     26 CD         69.7530    1.5350   32.5650 C.3       1 THR         0.0369
     27 N          71.8980    1.1380   28.4030 N.am      1 THR        -0.2619
     28 CA         71.7930    0.5980   27.0180 C.3       1 THR         0.1404
     29 C          70.9830   -0.7100   26.9460 C.2       1 THR         0.2060
     30 O          71.0940   -1.6160   27.8360 O.2       1 THR        -0.3942
     31 CB         73.1890    0.3420   26.4380 C.3       1 THR         0.0214
     32 CG         73.9460   -0.8150   27.0640 C.ar      1 THR        -0.0386
     33 CD1        74.7670   -0.6200   28.1690 C.ar      1 THR        -0.0601
     34 CD2        73.8600   -2.0980   26.5330 C.ar      1 THR        -0.0601
     35 CE1        75.4650   -1.6780   28.7340 C.ar      1 THR        -0.0686
     36 CE2        74.5600   -3.1530   27.1020 C.ar      1 THR        -0.0686
     37 CZ         75.3580   -2.9440   28.2030 C.ar      1 THR        -0.0687
     38 N          70.2090   -0.7940   25.8620 N.am      1 THR        -0.2636
     39 CA         69.7170   -2.0940   25.3550 C.3       1 THR         0.1312
     40 C          70.6960   -2.5310   24.2580 C.2       1 THR         0.2040
     41 O          71.3100   -1.6710   23.5960 O.2       1 THR        -0.3944
     42 CB         68.2880   -2.0140   24.8090 C.3       1 THR        -0.0101
     43 CG         67.1800   -1.5290   25.7480 C.3       1 THR        -0.0425
     44 CD1        65.8900   -2.2760   25.4510 C.3       1 THR        -0.0625
     45 CD2        67.5330   -1.6650   27.2210 C.3       1 THR        -0.0625
     46 N          70.8450   -3.8340   24.0670 N.am      1 THR        -0.2616
     47 CA         71.6070   -4.3780   22.9160 C.3       1 THR         0.1539
     48 C          70.9290   -3.9830   21.6050 C.2       1 THR         0.2060
     49 O          69.7400   -3.5380   21.5970 O.2       1 THR        -0.3943
     50 CB         71.7680   -5.8690   22.9990 C.3       1 THR         0.0843
     51 OG         70.5000   -6.4970   23.0280 O.3       1 THR        -0.3903
     52 N          71.6770   -4.1830   20.5310 N.am      1 THR        -0.2663
     53 CA         71.2930   -3.7540   19.1820 C.3       1 THR         0.1201
     54 C          69.9560   -4.3230   18.7820 C.2       1 THR         0.2002
     55 O          69.5200   -5.3390   19.3440 O.2       1 THR        -0.3947
     56 N          69.2930   -3.6240   17.8760 N.am      1 THR        -0.2697
     57 CA         67.9460   -4.0240   17.3950 C.3       1 THR         0.0944
     58 C          68.1200   -5.0780   16.2950 C.2       1 THR         0.0601
     59 O          67.1510   -5.7920   15.9400 O.co2     1 THR        -0.5666
     60 CB         67.1970   -2.7980   16.8760 C.3       1 THR        -0.0177
     61 CG         66.7910   -1.8260   17.9610 C.3       1 THR        -0.0446
     62 CD         66.1630   -0.5840   17.4160 C.3       1 THR        -0.0125
     63 CE         65.3740    0.1270   18.4910 C.3       1 THR        -0.0354
     64 NZ         65.6520    1.5780   18.5020 N.4       1 THR         0.2185
     65 OXT        69.2610   -5.1610   15.7800 O.co2     1 THR        -0.5666
     66 H1         67.7862   10.5842   35.4436 H         1 THR         0.2016
     67 H2         68.7331   10.6169   36.7895 H         1 THR         0.2016
     68 H3         67.8442    9.2760   36.4409 H         1 THR         0.2016
     69 H4         70.0896   10.3292   34.8369 H         1 THR         0.1125
     70 H5         71.0975    8.0013   35.4082 H         1 THR         0.0674
     71 H6         70.2777    7.2555   37.4665 H         1 THR         0.2102
     72 H7         72.0774    8.7699   37.5234 H         1 THR         0.0258
     73 H8         70.8195   10.0452   37.6573 H         1 THR         0.0258
     74 H9         72.0231   10.1071   36.3252 H         1 THR         0.0258
     75 H10        70.6276    9.1676   33.0773 H         1 THR         0.1885
     76 H11        68.5603    7.9890   31.4990 H         1 THR         0.0826
     77 H12        70.5378    7.3006   30.0078 H         1 THR         0.0639
     78 H13        71.8914    8.8919   31.9600 H         1 THR         0.2101
     79 H14        70.9095    9.6337   29.3052 H         1 THR         0.0257
     80 H15        70.2028   10.2127   30.8517 H         1 THR         0.0257
     81 H16        69.1782    9.3266   29.6720 H         1 THR         0.0257
     82 H17        68.6091    5.9366   30.5633 H         1 THR         0.1883
     83 H18        68.7745    3.8312   32.6409 H         1 THR         0.0797
     84 H19        67.4490    2.5020   31.0645 H         1 THR         0.0277
     85 H20        67.5855    3.8058   29.8366 H         1 THR         0.0277
     86 H21        66.6864    4.1006   31.3635 H         1 THR         0.0277
     87 H22        72.3591    2.0109   30.7063 H         1 THR         0.0802
     88 H23        72.4530    0.3496   32.3506 H         1 THR         0.0313
     89 H24        71.7271   -0.6952   31.0825 H         1 THR         0.0313
     90 H25        70.5124   -0.2511   33.5004 H         1 THR         0.0287
     91 H26        69.5832   -0.5342   31.9894 H         1 THR         0.0287
     92 H27        68.6574    1.5329   32.4664 H         1 THR         0.0524
     93 H28        70.0350    2.0163   33.5131 H         1 THR         0.0524
     94 H29        72.7250    1.6529   28.6287 H         1 THR         0.1885
     95 H30        71.2855    1.3520   26.3984 H         1 THR         0.0823
     96 H31        73.7875    1.2546   26.5757 H         1 THR         0.0474
     97 H32        73.0784    0.1347   25.3634 H         1 THR         0.0474
     98 H33        74.8632    0.3721   28.5950 H         1 THR         0.0557
     99 H34        73.2380   -2.2762   25.6633 H         1 THR         0.0557
    100 H35        76.0975   -1.5070   29.5975 H         1 THR         0.0599
    101 H36        74.4775   -4.1466   26.6767 H         1 THR         0.0599
    102 H37        75.8990   -3.7705   28.6495 H         1 THR         0.0559
    103 H38        69.9548    0.0442   25.3795 H         1 THR         0.1883
    104 H39        69.7319   -2.8284   26.1738 H         1 THR         0.0800
    105 H40        68.0108   -3.0237   24.4719 H         1 THR         0.0315
    106 H41        68.3063   -1.3315   23.9465 H         1 THR         0.0315
    107 H42        67.0149   -0.4608   25.5438 H         1 THR         0.0298
    108 H43        65.0980   -1.9236   26.1282 H         1 THR         0.0232
    109 H44        66.0478   -3.3542   25.6010 H         1 THR         0.0232
    110 H45        65.5906   -2.0907   24.4089 H         1 THR         0.0232
    111 H46        68.4672   -1.1215   27.4258 H         1 THR         0.0232
    112 H47        67.6653   -2.7283   27.4697 H         1 THR         0.0232
    113 H48        66.7219   -1.2435   27.8329 H         1 THR         0.0232
    114 H49        70.4312   -4.4699   24.7185 H         1 THR         0.1884
    115 H50        72.6113   -3.9296   22.9326 H         1 THR         0.0823
    116 H51        72.3208   -6.1243   23.9151 H         1 THR         0.0606
    117 H52        72.3288   -6.2233   22.1215 H         1 THR         0.0606
    118 H53        70.0148   -6.1935   23.7863 H         1 THR         0.2097
    119 H54        72.5524   -4.6526   20.6459 H         1 THR         0.1881
    120 H55        72.0557   -4.0965   18.4672 H         1 THR         0.0763
    121 H56        71.2356   -2.6558   19.1588 H         1 THR         0.0763
    122 H57        69.7133   -2.7974   17.5018 H         1 THR         0.1875
    123 H58        67.3757   -4.4625   18.2271 H         1 THR         0.0726
    124 H59        66.2883   -3.1399   16.3590 H         1 THR         0.0305
    125 H60        67.8477   -2.2701   16.1633 H         1 THR         0.0305
    126 H61        67.6863   -1.5451   18.5351 H         1 THR         0.0269
    127 H62        66.0695   -2.3224   18.6265 H         1 THR         0.0269
    128 H63        65.4883   -0.8523   16.5897 H         1 THR         0.0317
    129 H64        66.9513    0.0862   17.0428 H         1 THR         0.0317
    130 H65        65.6442   -0.2953   19.4701 H         1 THR         0.0813
    131 H66        64.3006   -0.0291   18.3079 H         1 THR         0.0813
    132 H67        65.1103    2.0184   19.2291 H         1 THR         0.1994
    133 H68        65.4021    1.9748   17.6097 H         1 THR         0.1994
    134 H69        66.6332    1.7308   18.6747 H         1 THR         0.1994
@<TRIPOS>BOND
     1    1    2 1  
     2    2    3 1  
     3    2    5 1  
     4    3    4 2  
     5    3    8 am 
     6    5    6 1  
     7    5    7 1  
     8    8    9 1  
     9    9   10 1  
    10    9   12 1  
    11   10   11 2  
    12   10   15 am 
    13   12   13 1  
    14   12   14 1  
    15   15   16 1  
    16   16   17 1  
    17   16   19 1  
    18   17   18 2  
    19   17   20 am 
    20   20   21 1  
    21   20   26 1  
    22   21   22 1  
    23   21   24 1  
    24   22   23 2  
    25   22   27 am 
    26   24   25 1  
    27   25   26 1  
    28   27   28 1  
    29   28   29 1  
    30   28   31 1  
    31   29   30 2  
    32   29   38 am 
    33   31   32 1  
    34   32   33 ar 
    35   32   34 ar 
    36   33   35 ar 
    37   34   36 ar 
    38   35   37 ar 
    39   36   37 ar 
    40   38   39 1  
    41   39   40 1  
    42   39   42 1  
    43   40   41 2  
    44   40   46 am 
    45   42   43 1  
    46   43   44 1  
    47   43   45 1  
    48   46   47 1  
    49   47   48 1  
    50   47   50 1  
    51   48   49 2  
    52   48   52 am 
    53   50   51 1  
    54   52   53 1  
    55   53   54 1  
    56   54   55 2  
    57   54   56 am 
    58   56   57 1  
    59   57   58 1  
    60   57   60 1  
    61   58   59 ar 
    62   58   65 ar 
    63   60   61 1  
    64   61   62 1  
    65   62   63 1  
    66   63   64 1  
    67    1   66 1  
    68    1   67 1  
    69    1   68 1  
    70    2   69 1  
    71    5   70 1  
    72    6   71 1  
    73    7   72 1  
    74    7   73 1  
    75    7   74 1  
    76    8   75 1  
    77    9   76 1  
    78   12   77 1  
    79   13   78 1  
    80   14   79 1  
    81   14   80 1  
    82   14   81 1  
    83   15   82 1  
    84   16   83 1  
    85   19   84 1  
    86   19   85 1  
    87   19   86 1  
    88   21   87 1  
    89   24   88 1  
    90   24   89 1  
    91   25   90 1  
    92   25   91 1  
    93   26   92 1  
    94   26   93 1  
    95   27   94 1  
    96   28   95 1  
    97   31   96 1  
    98   31   97 1  
    99   33   98 1  
   100   34   99 1  
   101   35  100 1  
   102   36  101 1  
   103   37  102 1  
   104   38  103 1  
   105   39  104 1  
   106   42  105 1  
   107   42  106 1  
   108   43  107 1  
   109   44  108 1  
   110   44  109 1  
   111   44  110 1  
   112   45  111 1  
   113   45  112 1  
   114   45  113 1  
   115   46  114 1  
   116   47  115 1  
   117   50  116 1  
   118   50  117 1  
   119   51  118 1  
   120   52  119 1  
   121   53  120 1  
   122   53  121 1  
   123   56  122 1  
   124   57  123 1  
   125   60  124 1  
   126   60  125 1  
   127   61  126 1  
   128   61  127 1  
   129   62  128 1  
   130   62  129 1  
   131   63  130 1  
   132   63  131 1  
   133   64  132 1  
   134   64  133 1  
   135   64  134 1  
@<TRIPOS>SUBSTRUCTURE
     1 THR         1

