### 
### Created by X-TOOL on Mon Aug  2 16:15:33 2021
### 

@<TRIPOS>MOLECULE
6o9d_ligand
   54    58     1     0     0
SMALL
GAST_HUCK


@<TRIPOS>ATOM
      1 C4         19.7640    9.7360   42.3200 C.ar      1 LTY        -0.0346
      2 C14        20.5630    3.2440   41.2790 C.3       1 LTY         0.0027
      3 C5         20.2740    8.5330   41.8990 C.ar      1 LTY         0.0978
      4 C6         19.8650    7.3490   42.5480 C.ar      1 LTY         0.0780
      5 C7         19.0120    7.4010   43.6270 C.ar      1 LTY        -0.0302
      6 C8         18.5010    8.6380   44.0790 C.ar      1 LTY         0.0211
      7 C10        17.2270    9.8250   45.6010 C.ar      1 LTY        -0.0020
      8 C12        19.2620    5.4260   41.1740 C.3       1 LTY         0.0275
      9 C13        19.8570    4.2620   40.3820 C.3       1 LTY        -0.0255
     10 C3         18.8670    9.8250   43.4100 C.ar      1 LTY        -0.0192
     11 C1         17.5260   11.0430   44.9880 C.ar      1 LTY        -0.0435
     12 C2         18.3460   11.0430   43.8970 C.ar      1 LTY        -0.0494
     13 N9         17.6770    8.6490   45.1840 N.ar      1 LTY        -0.3127
     14 N11        20.2790    6.0890   42.0000 N.pl3     1 LTY        -0.3062
     15 C15        21.5520    3.9650   42.1980 C.3       1 LTY        -0.0255
     16 C16        20.9320    5.1580   42.9300 C.3       1 LTY         0.0275
     17 C17        21.2710    2.1910   40.4430 C.3       1 LTY        -0.0324
     18 N18        20.2700    1.3110   39.8010 N.4       1 LTY         0.2187
     19 N19        21.2360    8.4670   40.8600 N.am      1 LTY        -0.2380
     20 C20        21.7040    9.4720   40.0290 C.2       1 LTY         0.2011
     21 O21        21.4850   10.6700   40.2010 O.2       1 LTY        -0.3969
     22 C22        22.5470    9.0270   38.8780 C.2       1 LTY         0.0805
     23 C23        23.0150    9.7890   37.8010 C.2       1 LTY         0.0045
     24 N24        23.6170    9.0260   36.8140 N.2       1 LTY        -0.2028
     25 N25        23.5760    7.7490   37.3370 N.pl3     1 LTY        -0.1272
     26 C26        22.9670    7.7190   38.5870 C.2       1 LTY         0.1867
     27 N27        22.8540    6.5940   39.3070 N.2       1 LTY        -0.2612
     28 C28        23.3280    5.4650   38.7440 C.2       1 LTY         0.0175
     29 C29        23.9220    5.4120   37.4920 C.2       1 LTY         0.0107
     30 C30        24.0460    6.5970   36.7980 C.2       1 LTY         0.1171
     31 H1         20.0568   10.6426   41.8029 H         1 LTY         0.0441
     32 H2         19.8080    2.7420   41.9018 H         1 LTY         0.0354
     33 H3         18.7301    6.4853   44.1340 H         1 LTY         0.0457
     34 H4         16.5854    9.8413   46.4746 H         1 LTY         0.0794
     35 H5         18.4644    5.0432   41.8276 H         1 LTY         0.0515
     36 H6         18.8396    6.1585   40.4704 H         1 LTY         0.0515
     37 H7         19.0462    3.7527   39.8405 H         1 LTY         0.0289
     38 H8         20.5851    4.6616   39.6608 H         1 LTY         0.0289
     39 H9         17.1151   11.9702   45.3708 H         1 LTY         0.0636
     40 H10        18.5966   11.9762   43.4057 H         1 LTY         0.0704
     41 H11        22.3946    4.3267   41.5904 H         1 LTY         0.0289
     42 H12        21.9207    3.2482   42.9465 H         1 LTY         0.0289
     43 H13        20.1841    4.7868   43.6461 H         1 LTY         0.0515
     44 H14        21.7247    5.6940   43.4725 H         1 LTY         0.0515
     45 H15        21.9258    1.5892   41.0903 H         1 LTY         0.0816
     46 H16        21.8752    2.6846   39.6676 H         1 LTY         0.0816
     47 H17        20.7419    0.6135   39.2471 H         1 LTY         0.1994
     48 H18        19.6699    1.8619   39.2073 H         1 LTY         0.1994
     49 H19        19.7162    0.8580   40.5111 H         1 LTY         0.1994
     50 H20        21.6350    7.5634   40.7041 H         1 LTY         0.2245
     51 H21        22.9158   10.8720   37.7448 H         1 LTY         0.0693
     52 H22        23.2391    4.5371   39.3070 H         1 LTY         0.1000
     53 H23        24.2766    4.4713   37.0733 H         1 LTY         0.0622
     54 H24        24.5209    6.6077   35.8181 H         1 LTY         0.1382
@<TRIPOS>BOND
     1    3    1 ar 
     2    1   10 ar 
     3    9    2 1  
     4    2   15 1  
     5    2   17 1  
     6    4    3 ar 
     7    3   19 1  
     8    4    5 ar 
     9   14    4 1  
    10    5    6 ar 
    11    6   10 ar 
    12    6   13 ar 
    13    7   11 ar 
    14   13    7 ar 
    15    8    9 1  
    16    8   14 1  
    17   10   12 ar 
    18   11   12 ar 
    19   14   16 1  
    20   15   16 1  
    21   17   18 1  
    22   19   20 am 
    23   20   21 2  
    24   20   22 1  
    25   22   23 1  
    26   22   26 2  
    27   23   24 2  
    28   24   25 1  
    29   25   26 1  
    30   25   30 1  
    31   26   27 1  
    32   27   28 2  
    33   28   29 1  
    34   29   30 2  
    35    1   31 1  
    36    2   32 1  
    37    5   33 1  
    38    7   34 1  
    39    8   35 1  
    40    8   36 1  
    41    9   37 1  
    42    9   38 1  
    43   11   39 1  
    44   12   40 1  
    45   15   41 1  
    46   15   42 1  
    47   16   43 1  
    48   16   44 1  
    49   17   45 1  
    50   17   46 1  
    51   18   47 1  
    52   18   48 1  
    53   18   49 1  
    54   19   50 1  
    55   23   51 1  
    56   28   52 1  
    57   29   53 1  
    58   30   54 1  
@<TRIPOS>SUBSTRUCTURE
     1 LTY         1

