### 
### Created by X-TOOL on Mon Aug  2 16:15:33 2021
### 

@<TRIPOS>MOLECULE
6o9x_ligand
   43    45     1     0     0
SMALL
GAST_HUCK


@<TRIPOS>ATOM
      1 C2         -2.4060   -8.4460   24.6280 C.2       1 M0S         0.0899
      2 C4         -3.3010   -6.0450   25.8230 C.2       1 M0S         0.2820
      3 C5         -2.9070   -6.8920   28.0570 C.3       1 M0S         0.0258
      4 C6         -2.4920   -8.9610   22.6010 C.2       1 M0S         0.1618
      5 C7         -1.9380  -11.5380   21.3990 C.3       1 M0S         0.0523
      6 C8         -0.6150  -11.6230   22.1280 C.3       1 M0S        -0.0202
      7 C9          0.7850  -12.3530   23.9980 C.3       1 M0S        -0.0317
      8 C11        -0.6810  -13.6300   25.3700 C.3       1 M0S        -0.0077
      9 C12        -1.4630  -12.8490   24.2960 C.3       1 M0S        -0.0317
     10 O          -3.6400   -5.0250   26.4410 O.2       1 M0S        -0.3951
     11 N          -3.3490   -6.1600   24.3800 N.am      1 M0S        -0.2292
     12 C          -3.8300   -4.9830   23.6400 C.3       1 M0S         0.0360
     13 C1         -3.0250   -7.3540   23.8230 C.2       1 M0S         0.0924
     14 N3         -2.9560   -7.7050   22.5040 N.2       1 M0S        -0.3140
     15 N2         -2.1800   -9.5180   23.8430 N.pl3     1 M0S        -0.2641
     16 C3         -2.5400   -8.3620   26.0410 C.3       1 M0S         0.1282
     17 S          -1.7570   -9.6800   27.0380 S.3       1 M0S        -0.1418
     18 N1         -2.8070   -7.0760   26.6170 N.am      1 M0S        -0.2393
     19 S1         -2.3550   -9.8480   21.1150 S.3       1 M0S        -0.0505
     20 N4         -0.4640  -12.6570   23.2180 N.4       1 M0S         0.2360
     21 C10         0.7280  -13.0700   25.3330 C.3       1 M0S        -0.0077
     22 H1         -3.1150   -5.8347   28.2779 H         1 M0S         0.0485
     23 H2         -1.9589   -7.1859   28.5310 H         1 M0S         0.0485
     24 H3         -3.7227   -7.5162   28.4507 H         1 M0S         0.0485
     25 H4         -2.7222  -12.0102   22.0089 H         1 M0S         0.0458
     26 H5         -1.8582  -12.0615   20.4349 H         1 M0S         0.0458
     27 H6         -0.4307  -10.6393   22.5844 H         1 M0S         0.0824
     28 H7          0.1596  -11.8285   21.3745 H         1 M0S         0.0824
     29 H8          0.8586  -11.2684   24.1661 H         1 M0S         0.0814
     30 H9          1.6640  -12.6970   23.4332 H         1 M0S         0.0814
     31 H10        -0.6738  -14.7046   25.1350 H         1 M0S         0.0319
     32 H11        -1.1304  -13.4746   26.3619 H         1 M0S         0.0319
     33 H12        -1.8109  -11.8817   24.6875 H         1 M0S         0.0814
     34 H13        -2.3247  -13.4300   23.9356 H         1 M0S         0.0814
     35 H14        -4.0140   -4.1576   24.3435 H         1 M0S         0.0528
     36 H15        -4.7648   -5.2350   23.1178 H         1 M0S         0.0528
     37 H16        -3.0708   -4.6762   22.9055 H         1 M0S         0.0528
     38 H17        -1.8686  -10.4689   24.0874 H         1 M0S         0.2284
     39 H18        -3.5690   -8.7455   26.1053 H         1 M0S         0.0778
     40 H19        -1.6477  -10.5073   26.4726 H         1 M0S         0.1056
     41 H20        -0.3683  -13.5419   22.7449 H         1 M0S         0.2034
     42 H21         0.8950  -12.3689   26.1640 H         1 M0S         0.0319
     43 H22         1.4739  -13.8772   25.3787 H         1 M0S         0.0319
@<TRIPOS>BOND
     1   13    1 2  
     2    1   15 1  
     3    1   16 1  
     4    2   10 2  
     5   11    2 am 
     6    2   18 am 
     7   18    3 1  
     8    4   14 2  
     9   15    4 1  
    10    4   19 1  
    11    5    6 1  
    12   19    5 1  
    13    6   20 1  
    14   20    7 1  
    15    7   21 1  
    16    9    8 1  
    17    8   21 1  
    18   20    9 1  
    19   11   12 1  
    20   11   13 1  
    21   13   14 1  
    22   16   17 1  
    23   16   18 1  
    24    3   22 1  
    25    3   23 1  
    26    3   24 1  
    27    5   25 1  
    28    5   26 1  
    29    6   27 1  
    30    6   28 1  
    31    7   29 1  
    32    7   30 1  
    33    8   31 1  
    34    8   32 1  
    35    9   33 1  
    36    9   34 1  
    37   12   35 1  
    38   12   36 1  
    39   12   37 1  
    40   15   38 1  
    41   16   39 1  
    42   17   40 1  
    43   20   41 1  
    44   21   42 1  
    45   21   43 1  
@<TRIPOS>SUBSTRUCTURE
     1 M0S         1

