### 
### Created by X-TOOL on Mon Aug  2 16:15:34 2021
### 

@<TRIPOS>MOLECULE
6oa1_ligand
   42    44     1     0     0
SMALL
GAST_HUCK


@<TRIPOS>ATOM
      1 C11        -0.1140  -12.2230   24.3560 C.3       1 M0P        -0.0078
      2 C12        -0.0880  -11.8290   25.8260 C.3       1 M0P         0.0878
      3 C14        -2.2980  -12.5000   26.2240 C.3       1 M0P         0.0878
      4 C02        -2.3830   -8.1660   26.0220 C.2       1 M0P         0.1975
      5 C03        -2.5090   -8.3090   24.5730 C.2       1 M0P         0.0957
      6 C04        -3.0080   -7.2200   23.7490 C.2       1 M0P         0.1961
      7 C06        -2.5890   -8.8790   22.5030 C.2       1 M0P         0.1674
      8 C08        -2.5000  -11.5970   21.6090 C.3       1 M0P         0.0521
      9 C09        -1.4130  -12.1570   22.4280 C.3       1 M0P        -0.0200
     10 C15        -2.4720  -12.7610   24.7000 C.3       1 M0P        -0.0078
     11 C18        -3.8510   -4.9460   23.4470 C.3       1 M0P         0.0508
     12 C19        -3.2250   -5.8640   25.7010 C.2       1 M0P         0.3246
     13 C21        -2.6960   -6.7510   27.9980 C.3       1 M0P         0.0475
     14 N05        -2.9670   -7.6310   22.4100 N.pl3     1 M0P        -0.2198
     15 N10        -1.4630  -11.9820   23.8940 N.4       1 M0P         0.2392
     16 N16        -2.2680   -9.3050   23.7020 N.2       1 M0P        -0.3328
     17 N17        -3.3290   -6.0160   24.2900 N.am      1 M0P        -0.1757
     18 N20        -2.7300   -6.9130   26.5410 N.am      1 M0P        -0.1768
     19 O01        -1.9770   -9.1030   26.8150 O.2       1 M0P        -0.4094
     20 O13        -0.8990  -12.7830   26.5100 O.3       1 M0P        -0.3693
     21 O22        -3.5890   -4.7950   26.2270 O.2       1 M0P        -0.3850
     22 S07        -2.4320   -9.8790   21.0750 S.3       1 M0P        -0.0504
     23 H1          0.1430  -13.2865   24.2423 H         1 M0P         0.0837
     24 H2          0.5991  -11.6103   23.7850 H         1 M0P         0.0837
     25 H3         -0.4984  -10.8168   25.9565 H         1 M0P         0.0613
     26 H4          0.9422  -11.8594   26.2104 H         1 M0P         0.0613
     27 H5         -2.9517  -13.1669   26.8053 H         1 M0P         0.0613
     28 H6         -2.5353  -11.4531   26.4643 H         1 M0P         0.0613
     29 H7         -3.4270  -11.7124   22.1899 H         1 M0P         0.0458
     30 H8         -2.5594  -12.2105   20.6979 H         1 M0P         0.0458
     31 H9         -0.4762  -11.6976   22.0795 H         1 M0P         0.0824
     32 H10        -1.3857  -13.2391   22.2325 H         1 M0P         0.0824
     33 H11        -3.4848  -12.4567   24.3973 H         1 M0P         0.0837
     34 H12        -2.3372  -13.8346   24.5022 H         1 M0P         0.0837
     35 H13        -3.8446   -5.2710   22.3961 H         1 M0P         0.0559
     36 H14        -3.2209   -4.0512   23.5579 H         1 M0P         0.0559
     37 H15        -4.8812   -4.7090   23.7512 H         1 M0P         0.0559
     38 H16        -2.2851   -7.6615   28.4586 H         1 M0P         0.0539
     39 H17        -3.7162   -6.5794   28.3718 H         1 M0P         0.0539
     40 H18        -2.0612   -5.8907   28.2566 H         1 M0P         0.0539
     41 H19        -3.1814   -7.0855   21.5630 H         1 M0P         0.2389
     42 H20        -1.6819  -11.0120   24.0589 H         1 M0P         0.2035
@<TRIPOS>BOND
     1    1    2 1  
     2   15    1 1  
     3    2   20 1  
     4    3   10 1  
     5   20    3 1  
     6    5    4 1  
     7    4   18 am 
     8    4   19 2  
     9    5    6 2  
    10   16    5 1  
    11   14    6 1  
    12    6   17 1  
    13    7   14 1  
    14    7   16 2  
    15   22    7 1  
    16    9    8 1  
    17    8   22 1  
    18    9   15 1  
    19   10   15 1  
    20   17   11 1  
    21   17   12 am 
    22   12   18 am 
    23   12   21 2  
    24   18   13 1  
    25    1   23 1  
    26    1   24 1  
    27    2   25 1  
    28    2   26 1  
    29    3   27 1  
    30    3   28 1  
    31    8   29 1  
    32    8   30 1  
    33    9   31 1  
    34    9   32 1  
    35   10   33 1  
    36   10   34 1  
    37   11   35 1  
    38   11   36 1  
    39   11   37 1  
    40   13   38 1  
    41   13   39 1  
    42   13   40 1  
    43   14   41 1  
    44   15   42 1  
@<TRIPOS>SUBSTRUCTURE
     1 M0P         1

