### 
### Created by X-TOOL on Mon Aug  2 16:15:34 2021
### 

@<TRIPOS>MOLECULE
6oa3_ligand
   42    44     1     0     0
SMALL
GAST_HUCK


@<TRIPOS>ATOM
      1 C11        -1.9410  -13.3030   24.8790 C.3       1 M0M        -0.0078
      2 C12        -1.0070  -13.8940   25.9310 C.3       1 M0M         0.0878
      3 C14         0.8960  -12.8440   25.0150 C.3       1 M0M         0.0878
      4 C02        -2.5330   -8.2730   26.3250 C.2       1 M0M         0.0717
      5 C03        -2.6800   -8.3670   24.8580 C.2       1 M0M         0.0788
      6 C04        -3.2280   -7.2270   24.0520 C.2       1 M0M         0.2050
      7 C06        -2.7670   -8.8810   22.7660 C.2       1 M0M         0.1709
      8 C08        -1.5670  -11.2250   21.6880 C.3       1 M0M         0.0526
      9 C09        -2.1870  -12.2040   22.6920 C.3       1 M0M        -0.0200
     10 C15         0.0850  -12.3190   23.8200 C.3       1 M0M        -0.0078
     11 C18        -4.1070   -4.9260   23.7780 C.3       1 M0M         0.0537
     12 C19        -3.4460   -5.9350   26.0410 C.2       1 M0M         0.3343
     13 C21        -2.8850   -6.8440   28.2740 C.3       1 M0M         0.0509
     14 N05        -3.2350   -7.5990   22.7320 N.pl3     1 M0M        -0.2138
     15 N10        -1.2400  -12.9620   23.6070 N.4       1 M0M         0.2392
     16 N16        -2.3980   -9.3410   24.0020 N.2       1 M0M        -0.3300
     17 N17        -3.5920   -6.0510   24.6030 N.am      1 M0M        -0.1679
     18 N20        -2.9590   -7.0060   26.8440 N.am      1 M0M        -0.1930
     19 O13         0.0350  -12.9330   26.1350 O.3       1 M0M        -0.3693
     20 O22        -3.7400   -4.8570   26.5660 O.2       1 M0M        -0.3824
     21 S01        -1.9290   -9.5720   27.2630 S.2       1 M0M        -0.3121
     22 S07        -2.5680   -9.8290   21.2970 S.3       1 M0M        -0.0480
     23 H1         -2.3942  -12.3873   25.2865 H         1 M0M         0.0837
     24 H2         -2.7308  -14.0364   24.6589 H         1 M0M         0.0837
     25 H3         -0.5832  -14.8437   25.5726 H         1 M0M         0.0613
     26 H4         -1.5532  -14.0673   26.8699 H         1 M0M         0.0613
     27 H5          1.7223  -12.1523   25.2358 H         1 M0M         0.0613
     28 H6          1.3031  -13.8384   24.7795 H         1 M0M         0.0613
     29 H7         -1.3664  -11.7732   20.7557 H         1 M0M         0.0459
     30 H8         -0.6192  -10.8584   22.1091 H         1 M0M         0.0459
     31 H9         -2.7569  -12.9489   22.1173 H         1 M0M         0.0824
     32 H10        -2.8740  -11.6299   23.3311 H         1 M0M         0.0824
     33 H11         0.6850  -12.4722   22.9109 H         1 M0M         0.0837
     34 H12        -0.0823  -11.2425   23.9719 H         1 M0M         0.0837
     35 H13        -4.1354   -5.2294   22.7211 H         1 M0M         0.0567
     36 H14        -3.4451   -4.0549   23.8917 H         1 M0M         0.0567
     37 H15        -5.1215   -4.6616   24.1109 H         1 M0M         0.0567
     38 H16        -2.4889   -7.7647   28.7273 H         1 M0M         0.0561
     39 H17        -3.8901   -6.6421   28.6727 H         1 M0M         0.0561
     40 H18        -2.2194   -6.0016   28.5137 H         1 M0M         0.0561
     41 H19        -3.5236   -7.0451   21.9130 H         1 M0M         0.2409
     42 H20        -1.0429  -13.8358   23.1448 H         1 M0M         0.2035
@<TRIPOS>BOND
     1    1    2 1  
     2   15    1 1  
     3    2   19 1  
     4    3   10 1  
     5   19    3 1  
     6    5    4 1  
     7    4   18 am 
     8    4   21 2  
     9    5    6 2  
    10   16    5 1  
    11   14    6 1  
    12    6   17 1  
    13    7   14 1  
    14    7   16 2  
    15   22    7 1  
    16    9    8 1  
    17    8   22 1  
    18    9   15 1  
    19   10   15 1  
    20   17   11 1  
    21   17   12 am 
    22   12   18 am 
    23   12   20 2  
    24   18   13 1  
    25    1   23 1  
    26    1   24 1  
    27    2   25 1  
    28    2   26 1  
    29    3   27 1  
    30    3   28 1  
    31    8   29 1  
    32    8   30 1  
    33    9   31 1  
    34    9   32 1  
    35   10   33 1  
    36   10   34 1  
    37   11   35 1  
    38   11   36 1  
    39   11   37 1  
    40   13   38 1  
    41   13   39 1  
    42   13   40 1  
    43   14   41 1  
    44   15   42 1  
@<TRIPOS>SUBSTRUCTURE
     1 M0M         1

