### 
### Created by X-TOOL on Mon Aug  2 16:15:35 2021
### 

@<TRIPOS>MOLECULE
6oac_ligand
   52    55     1     0     0
SMALL
GAST_HUCK


@<TRIPOS>ATOM
      1 C10       -16.5760    8.4630   26.7410 C.ar      1 M1J         0.0421
      2 N12       -18.5640    9.4280   27.9440 N.ar      1 M1J        -0.2469
      3 C13       -19.1390   10.3950   28.6880 C.ar      1 M1J         0.1840
      4 C15       -20.9160   10.8700   30.4110 C.3       1 M1J         0.0591
      5 C21       -17.1260   11.6140   28.7310 C.ar      1 M1J         0.1843
      6 C24       -14.3030   14.2500   29.1650 C.3       1 M1J         0.0688
      7 C26       -16.0000   14.8860   30.5880 C.3       1 M1J         0.0713
      8 C28       -16.5200   12.6180   31.5970 C.3       1 M1J        -0.0389
      9 C02       -15.2630    6.7450   25.1010 C.ar      1 M1J         0.1069
     10 C03       -15.9670    6.2410   26.1320 C.ar      1 M1J        -0.0040
     11 C04       -16.6520    7.0850   26.9930 C.ar      1 M1J         0.0484
     12 C05       -17.4610    6.4570   28.1840 C.3       1 M1J         0.2820
     13 C09       -15.8410    8.8870   25.6770 C.ar      1 M1J         0.0088
     14 C11       -17.2760    9.5420   27.5970 C.ar      1 M1J         0.1016
     15 C16       -22.1630   11.8180   30.3460 C.3       1 M1J         0.0687
     16 C18       -23.0580   10.6260   28.5710 C.3       1 M1J         0.0687
     17 C19       -21.5550   10.5950   28.0800 C.3       1 M1J         0.0591
     18 C23       -14.8760   12.8240   29.0430 C.3       1 M1J         0.0594
     19 C27       -16.7510   13.5360   30.3660 C.3       1 M1J         0.0673
     20 F06       -18.7700    6.2810   27.8160 F         1 M1J        -0.1897
     21 F07       -17.4130    7.2640   29.3140 F         1 M1J        -0.1897
     22 N01       -14.5130    5.8160   24.1580 N.pl3     1 M1J        -0.3205
     23 N08       -15.2140    8.0630   24.8990 N.ar      1 M1J        -0.2852
     24 N14       -20.5260   10.3080   29.0840 N.pl3     1 M1J        -0.2690
     25 N20       -18.4060   11.4990   29.0800 N.ar      1 M1J        -0.2234
     26 N22       -16.3500   12.8100   29.1680 N.pl3     1 M1J        -0.2662
     27 N29       -16.5470   10.6500   27.9910 N.ar      1 M1J        -0.2469
     28 O17       -23.2570   11.1320   29.8680 O.3       1 M1J        -0.3756
     29 O25       -14.6240   14.8090   30.3870 O.3       1 M1J        -0.3754
     30 H1        -21.1483   10.0349   31.0882 H         1 M1J         0.0554
     31 H2        -20.0651   11.4408   30.8111 H         1 M1J         0.0554
     32 H3        -14.7206   14.8755   28.3624 H         1 M1J         0.0581
     33 H4        -13.2084   14.2078   29.0651 H         1 M1J         0.0581
     34 H5        -16.1805   15.2162   31.6216 H         1 M1J         0.0583
     35 H6        -16.4105   15.6292   29.8886 H         1 M1J         0.0583
     36 H7        -17.0469   11.6641   31.4470 H         1 M1J         0.0253
     37 H8        -16.9064   13.1122   32.5006 H         1 M1J         0.0253
     38 H9        -15.4431   12.4273   31.7153 H         1 M1J         0.0253
     39 H10       -15.9985    5.1690   26.2900 H         1 M1J         0.0556
     40 H11       -17.0216    5.4788   28.4292 H         1 M1J         0.1229
     41 H12       -15.7782    9.9500   25.4739 H         1 M1J         0.0828
     42 H13       -21.9429   12.6627   29.6767 H         1 M1J         0.0581
     43 H14       -22.3842   12.1973   31.3546 H         1 M1J         0.0581
     44 H15       -23.4452    9.5967   28.5449 H         1 M1J         0.0581
     45 H16       -23.6313   11.2513   27.8708 H         1 M1J         0.0581
     46 H17       -21.3284   11.5804   27.6469 H         1 M1J         0.0554
     47 H18       -21.4783    9.8246   27.2986 H         1 M1J         0.0554
     48 H19       -14.4456   12.1983   29.8388 H         1 M1J         0.0554
     49 H20       -14.5983   12.4117   28.0617 H         1 M1J         0.0554
     50 H21       -17.8249   13.7591   30.2823 H         1 M1J         0.0587
     51 H22       -13.9756    6.2058   23.3705 H         1 M1J         0.1787
     52 H23       -14.5426    4.7973   24.3071 H         1 M1J         0.1787
@<TRIPOS>BOND
     1    1   11 ar 
     2    1   13 ar 
     3   14    1 1  
     4    3    2 ar 
     5   14    2 ar 
     6    3   24 1  
     7   25    3 ar 
     8    4   15 1  
     9   24    4 1  
    10    5   25 ar 
    11   26    5 1  
    12    5   27 ar 
    13   18    6 1  
    14    6   29 1  
    15    7   19 1  
    16   29    7 1  
    17   19    8 1  
    18   10    9 ar 
    19    9   22 1  
    20   23    9 ar 
    21   11   10 ar 
    22   11   12 1  
    23   12   20 1  
    24   12   21 1  
    25   13   23 ar 
    26   27   14 ar 
    27   15   28 1  
    28   17   16 1  
    29   16   28 1  
    30   24   17 1  
    31   18   26 1  
    32   19   26 1  
    33    4   30 1  
    34    4   31 1  
    35    6   32 1  
    36    6   33 1  
    37    7   34 1  
    38    7   35 1  
    39    8   36 1  
    40    8   37 1  
    41    8   38 1  
    42   10   39 1  
    43   12   40 1  
    44   13   41 1  
    45   15   42 1  
    46   15   43 1  
    47   16   44 1  
    48   16   45 1  
    49   17   46 1  
    50   17   47 1  
    51   18   48 1  
    52   18   49 1  
    53   19   50 1  
    54   22   51 1  
    55   22   52 1  
@<TRIPOS>SUBSTRUCTURE
     1 M1J         1

