### 
### Created by X-TOOL on Mon Aug  2 16:17:11 2021
### 

@<TRIPOS>MOLECULE
6ob0_ligand
   61    65     1     0     0
SMALL
GAST_HUCK


@<TRIPOS>ATOM
      1 C1          5.1350   -0.6480  101.8240 C.2       1 M3D        -0.0349
      2 C2          3.8510   -0.5660  102.2480 C.2       1 M3D         0.0507
      3 C3          6.0960    1.5320  102.6060 C.ar      1 M3D         0.1291
      4 O1          5.2150    1.5670  103.6390 O.3       1 M3D        -0.2537
      5 O2          2.6000   -2.3200  103.2680 O.2       1 M3D        -0.3894
      6 O3         -0.8330    7.7240  105.6230 O.3       1 M3D        -0.3216
      7 C11         3.2350    2.8440  103.8830 C.ar      1 M3D        -0.0234
      8 C12         1.8360    3.0160  103.7900 C.ar      1 M3D        -0.0314
      9 C13         1.1020    1.9840  103.1590 C.ar      1 M3D        -0.0672
     10 C14         1.7580    0.8340  102.6430 C.ar      1 M3D        -0.0623
     11 C15         3.1350   -1.8490  102.2670 C.2       1 M3D         0.1988
     12 C16         1.1720    4.2430  104.2880 C.ar      1 M3D        -0.0193
     13 C17        -0.2400    4.2850  104.4510 C.ar      1 M3D        -0.0529
     14 C18        -0.9000    5.4430  104.9490 C.ar      1 M3D        -0.0191
     15 C19        -0.1700    6.6300  105.1580 C.ar      1 M3D         0.1272
     16 C20         1.2370    6.6390  104.9580 C.ar      1 M3D         0.1259
     17 C21         1.8970    5.4410  104.5740 C.ar      1 M3D        -0.0261
     18 C22         2.6070   -3.8230  100.8350 C.3       1 M3D         0.0700
     19 C23         1.1480   -3.7330  100.3930 C.3       1 M3D        -0.0112
     20 C24         1.1550   -5.8540   99.1630 C.3       1 M3D        -0.0078
     21 C25         0.7150   -7.3190   99.3310 C.3       1 M3D         0.0878
     22 C26        -1.2360   -6.5950  100.5390 C.3       1 M3D         0.0878
     23 C27        -0.8700   -5.1340  100.2290 C.3       1 M3D        -0.0078
     24 C28         2.0300    7.8610  105.1820 C.1       1 M3D         0.0922
     25 C10         3.8850    1.6930  103.3820 C.ar      1 M3D         0.1242
     26 C4          6.1030    0.4410  101.7010 C.ar      1 M3D         0.0198
     27 C5          7.0390    0.4300  100.6340 C.ar      1 M3D        -0.0576
     28 C6          7.9530    1.5010  100.4930 C.ar      1 M3D        -0.0693
     29 C7          7.9470    2.5660  101.4090 C.ar      1 M3D        -0.0675
     30 C8          7.0330    2.5770  102.4830 C.ar      1 M3D        -0.0244
     31 C9          3.1670    0.6620  102.7470 C.ar      1 M3D         0.0226
     32 N1          3.1650   -2.5190  101.1020 N.am      1 M3D        -0.2827
     33 N2          0.5830   -5.0630  100.2620 N.4       1 M3D         0.2399
     34 N3          2.6580    8.8430  105.3200 N.1       1 M3D        -0.3383
     35 O4         -0.7180   -7.3590   99.4600 O.3       1 M3D        -0.3693
     36 H1          5.4868   -1.6393  101.5423 H         1 M3D         0.0705
     37 H2         -0.2232    8.4464  105.7165 H         1 M3D         0.2541
     38 H3          3.8290    3.6192  104.3535 H         1 M3D         0.0525
     39 H4          0.0254    2.0718  103.0680 H         1 M3D         0.0523
     40 H5          1.1684    0.0656  102.1562 H         1 M3D         0.0576
     41 H6         -0.8283    3.4130  104.1893 H         1 M3D         0.0671
     42 H7         -1.9614    5.4122  105.1670 H         1 M3D         0.0574
     43 H8          2.9782    5.4354  104.4959 H         1 M3D         0.0702
     44 H9          3.1920   -4.3047  100.0377 H         1 M3D         0.0572
     45 H10         2.6654   -4.4300  101.7505 H         1 M3D         0.0572
     46 H11         1.0930   -3.2174   99.4229 H         1 M3D         0.0834
     47 H12         0.5753   -3.1668  101.1422 H         1 M3D         0.0834
     48 H13         0.7921   -5.4663   98.1997 H         1 M3D         0.0837
     49 H14         2.2528   -5.7910   99.1936 H         1 M3D         0.0837
     50 H15         1.1797   -7.7439  100.2329 H         1 M3D         0.0613
     51 H16         1.0236   -7.9014   98.4504 H         1 M3D         0.0613
     52 H17        -2.3280   -6.7116  100.6018 H         1 M3D         0.0613
     53 H18        -0.7782   -6.9119  101.4876 H         1 M3D         0.0613
     54 H19        -1.3017   -4.4638  100.9869 H         1 M3D         0.0837
     55 H20        -1.2429   -4.8505   99.2338 H         1 M3D         0.0837
     56 H21         7.0536   -0.3947   99.9307 H         1 M3D         0.0609
     57 H22         8.6621    1.4996   99.6731 H         1 M3D         0.0535
     58 H23         8.6486    3.3837  101.2897 H         1 M3D         0.0612
     59 H24         7.0512    3.3828  103.2079 H         1 M3D         0.0548
     60 H25         3.6234   -2.0650  100.3380 H         1 M3D         0.1841
     61 H26         0.8538   -5.5381  101.1088 H         1 M3D         0.2036
@<TRIPOS>BOND
     1    2    1 2  
     2    1   26 1  
     3   11    2 1  
     4    2   31 1  
     5    3    4 1  
     6   26    3 ar 
     7    3   30 ar 
     8    4   25 1  
     9   11    5 2  
    10   15    6 1  
    11    8    7 ar 
    12    7   25 ar 
    13    9    8 ar 
    14    8   12 1  
    15   10    9 ar 
    16   31   10 ar 
    17   32   11 am 
    18   12   13 ar 
    19   12   17 ar 
    20   13   14 ar 
    21   14   15 ar 
    22   16   15 ar 
    23   17   16 ar 
    24   16   24 1  
    25   19   18 1  
    26   18   32 1  
    27   33   19 1  
    28   21   20 1  
    29   20   33 1  
    30   35   21 1  
    31   22   23 1  
    32   22   35 1  
    33   23   33 1  
    34   24   34 3  
    35   25   31 ar 
    36   26   27 ar 
    37   27   28 ar 
    38   28   29 ar 
    39   29   30 ar 
    40    1   36 1  
    41    6   37 1  
    42    7   38 1  
    43    9   39 1  
    44   10   40 1  
    45   13   41 1  
    46   14   42 1  
    47   17   43 1  
    48   18   44 1  
    49   18   45 1  
    50   19   46 1  
    51   19   47 1  
    52   20   48 1  
    53   20   49 1  
    54   21   50 1  
    55   21   51 1  
    56   22   52 1  
    57   22   53 1  
    58   23   54 1  
    59   23   55 1  
    60   27   56 1  
    61   28   57 1  
    62   29   58 1  
    63   30   59 1  
    64   32   60 1  
    65   33   61 1  
@<TRIPOS>SUBSTRUCTURE
     1 M3D         1

