### 
### Created by X-TOOL on Mon Aug  2 16:15:37 2021
### 

@<TRIPOS>MOLECULE
6oco_ligand
   45    49     1     0     0
SMALL
GAST_HUCK


@<TRIPOS>ATOM
      1 C2         41.0800   13.0780   35.6110 C.3       1 M5V         0.0576
      2 C3         42.0980   14.2510   35.8170 C.3       1 M5V         0.0611
      3 C4         41.1920   15.2870   36.5760 C.3       1 M5V        -0.0026
      4 C5         39.9990   15.1910   35.5610 C.3       1 M5V         0.0675
      5 C6         40.7810   15.4200   34.2210 C.3       1 M5V         0.0510
      6 C8         42.9590   14.5330   33.4670 C.ar      1 M5V         0.0410
      7 C11        44.5060   13.6980   31.2860 C.ar      1 M5V        -0.0612
      8 C12        44.3560   12.8740   32.3910 C.ar      1 M5V         0.0288
      9 C15        38.6780   13.2000   34.9400 C.ar      1 M5V         0.1666
     10 C17        36.6950   13.6680   33.7540 C.ar      1 M5V         0.1257
     11 C19        37.3400   11.4520   33.8900 C.ar      1 M5V         0.0486
     12 C21        39.3300   10.7430   35.0570 C.1       1 M5V         0.1026
     13 N22        40.0450    9.9260   35.3980 N.1       1 M5V        -0.3350
     14 C23        35.7220   14.6840   33.2770 C.ar      1 M5V         0.0498
     15 C24        36.0860   16.0340   33.1360 C.ar      1 M5V         0.0284
     16 C27        33.5200   15.2790   32.5130 C.ar      1 M5V        -0.0286
     17 N1         39.7400   13.7150   35.6940 N.pl3     1 M5V        -0.2724
     18 N7         42.1740   15.0160   34.5340 N.pl3     1 M5V        -0.3014
     19 C9         43.1270   15.3600   32.3490 C.ar      1 M5V        -0.0442
     20 C10        43.8900   14.9400   31.2690 C.ar      1 M5V        -0.0731
     21 CL1        45.1180   11.3210   32.4360 Cl        1 M5V        -0.0742
     22 C14        43.5980   13.2810   33.4750 C.ar      1 M5V        -0.0306
     23 N16        37.7530   14.0530   34.4720 N.ar      1 M5V        -0.2352
     24 N18        36.4920   12.3800   33.4690 N.ar      1 M5V        -0.2648
     25 C20        38.4710   11.8120   34.6480 C.ar      1 M5V         0.1623
     26 N25        35.2070   16.9280   32.7070 N.ar      1 M5V        -0.2903
     27 C26        33.9620   16.5890   32.4040 C.ar      1 M5V         0.0155
     28 C28        34.4010   14.3050   32.9550 C.ar      1 M5V        -0.0256
     29 H1         41.1978   12.3204   36.3998 H         1 M5V         0.0554
     30 H2         41.2248   12.6083   34.6269 H         1 M5V         0.0554
     31 H3         43.0573   13.9703   36.2763 H         1 M5V         0.0571
     32 H4         41.6359   16.2923   36.6230 H         1 M5V         0.0311
     33 H5         40.9206   14.9582   37.5900 H         1 M5V         0.0311
     34 H6         39.1325   15.8486   35.7242 H         1 M5V         0.0588
     35 H7         40.7402   16.4778   33.9222 H         1 M5V         0.0537
     36 H8         40.3659   14.7954   33.4163 H         1 M5V         0.0537
     37 H9         45.1014   13.3731   30.4404 H         1 M5V         0.0511
     38 H10        37.1618   10.4102   33.6494 H         1 M5V         0.0990
     39 H11        37.0947   16.3468   33.3803 H         1 M5V         0.0878
     40 H12        32.4991   15.0205   32.2559 H         1 M5V         0.0721
     41 H13        42.6569   16.3365   32.3274 H         1 M5V         0.0517
     42 H14        44.0052   15.5868   30.4067 H         1 M5V         0.0583
     43 H15        43.4964   12.6301   34.3358 H         1 M5V         0.0520
     44 H16        33.2732   17.3535   32.0631 H         1 M5V         0.0858
     45 H17        34.0823   13.2734   33.0515 H         1 M5V         0.0786
@<TRIPOS>BOND
     1    1    2 1  
     2   17    1 1  
     3    3    2 1  
     4    2   18 1  
     5    4    3 1  
     6    4    5 1  
     7   17    4 1  
     8    5   18 1  
     9   18    6 1  
    10    6   19 ar 
    11    6   22 ar 
    12    8    7 ar 
    13    7   20 ar 
    14    8   21 1  
    15   22    8 ar 
    16    9   17 1  
    17   23    9 ar 
    18    9   25 ar 
    19   14   10 1  
    20   10   23 ar 
    21   10   24 ar 
    22   24   11 ar 
    23   11   25 ar 
    24   12   13 3  
    25   25   12 1  
    26   14   15 ar 
    27   28   14 ar 
    28   15   26 ar 
    29   16   27 ar 
    30   16   28 ar 
    31   19   20 ar 
    32   26   27 ar 
    33    1   29 1  
    34    1   30 1  
    35    2   31 1  
    36    3   32 1  
    37    3   33 1  
    38    4   34 1  
    39    5   35 1  
    40    5   36 1  
    41    7   37 1  
    42   11   38 1  
    43   15   39 1  
    44   16   40 1  
    45   19   41 1  
    46   20   42 1  
    47   22   43 1  
    48   27   44 1  
    49   28   45 1  
@<TRIPOS>SUBSTRUCTURE
     1 M5V         1

