### 
### Created by X-TOOL on Mon Aug  2 16:15:37 2021
### 

@<TRIPOS>MOLECULE
6ocq_ligand
   38    39     1     0     0
SMALL
GAST_HUCK


@<TRIPOS>ATOM
      1 C1         20.1380    1.0320   51.8510 C.ar      1 M5J        -0.0703
      2 C10        18.7610   -4.7370   51.9630 C.3       1 M5J         0.0367
      3 C11        19.5450   -2.5950   51.2790 C.3       1 M5J         0.0777
      4 C12        20.2750   -6.1350   53.1190 C.3       1 M5J        -0.0534
      5 C13        20.0070   -4.6510   55.0420 C.3       1 M5J        -0.0534
      6 C14        22.2830   -5.2980   54.2310 C.3       1 M5J        -0.0534
      7 C15        20.8560   -4.9520   53.8400 C.3       1 M5J         0.0433
      8 C2         20.2310   -0.2570   51.3770 C.ar      1 M5J        -0.0622
      9 C3         19.2000    1.3390   52.8070 C.ar      1 M5J        -0.0352
     10 C4         18.4520   -0.9360   52.8060 C.ar      1 M5J        -0.0248
     11 C5         19.3930   -1.2380   51.8470 C.ar      1 M5J        -0.0196
     12 C6         18.3640    0.3570   53.2840 C.ar      1 M5J         0.1259
     13 C7         20.7760   -3.7360   52.9450 C.2       1 M5J         0.2055
     14 C8         17.8270   -4.2320   50.8940 C.3       1 M5J        -0.0283
     15 C9         18.3740   -2.9160   50.3960 C.3       1 M5J        -0.0178
     16 F18        17.4600    0.7030   54.2280 F         1 M5J        -0.1853
     17 N16        19.5840   -3.6080   52.2820 N.am      1 M5J        -0.2578
     18 O17        21.6660   -2.9070   52.8110 O.2       1 M5J        -0.3440
     19 H1         20.8014    1.8010   51.4720 H         1 M5J         0.0589
     20 H2         19.3724   -5.5692   51.5839 H         1 M5J         0.0526
     21 H3         18.1970   -5.0693   52.8470 H         1 M5J         0.0526
     22 H4         20.4750   -2.6280   50.6925 H         1 M5J         0.0723
     23 H5         20.3309   -7.0226   53.7663 H         1 M5J         0.0221
     24 H6         20.8447   -6.3179   52.1960 H         1 M5J         0.0221
     25 H7         19.2240   -5.9308   52.8668 H         1 M5J         0.0221
     26 H8         20.4239   -3.7855   55.5779 H         1 M5J         0.0221
     27 H9         19.9945   -5.5247   55.7102 H         1 M5J         0.0221
     28 H10        18.9809   -4.4223   54.7182 H         1 M5J         0.0221
     29 H11        22.8699   -5.5110   53.3254 H         1 M5J         0.0221
     30 H12        22.2800   -6.1841   54.8828 H         1 M5J         0.0221
     31 H13        22.7322   -4.4494   54.7678 H         1 M5J         0.0221
     32 H14        20.9732   -0.5001   50.6252 H         1 M5J         0.0523
     33 H15        19.1193    2.3521   53.1840 H         1 M5J         0.0546
     34 H16        17.7871   -1.7052   53.1820 H         1 M5J         0.0542
     35 H17        16.8207   -4.0855   51.3134 H         1 M5J         0.0287
     36 H18        17.7777   -4.9551   50.0665 H         1 M5J         0.0287
     37 H19        18.6985   -3.0085   49.3491 H         1 M5J         0.0310
     38 H20        17.6089   -2.1296   50.4746 H         1 M5J         0.0310
@<TRIPOS>BOND
     1    8    1 ar 
     2    1    9 ar 
     3    2   14 1  
     4   17    2 1  
     5    3   11 1  
     6    3   15 1  
     7   17    3 1  
     8    7    4 1  
     9    7    5 1  
    10    7    6 1  
    11   13    7 1  
    12   11    8 ar 
    13   12    9 ar 
    14   11   10 ar 
    15   10   12 ar 
    16   12   16 1  
    17   13   17 am 
    18   13   18 2  
    19   14   15 1  
    20    1   19 1  
    21    2   20 1  
    22    2   21 1  
    23    3   22 1  
    24    4   23 1  
    25    4   24 1  
    26    4   25 1  
    27    5   26 1  
    28    5   27 1  
    29    5   28 1  
    30    6   29 1  
    31    6   30 1  
    32    6   31 1  
    33    8   32 1  
    34    9   33 1  
    35   10   34 1  
    36   14   35 1  
    37   14   36 1  
    38   15   37 1  
    39   15   38 1  
@<TRIPOS>SUBSTRUCTURE
     1 M5J         1

