### 
### Created by X-TOOL on Mon Aug  2 16:15:39 2021
### 

@<TRIPOS>MOLECULE
6ocu_ligand
   50    53     1     0     0
SMALL
GAST_HUCK


@<TRIPOS>ATOM
      1 C1         36.2050   14.2210   33.5670 C.ar      1 M5D         0.0814
      2 C2         35.8860   12.9090   33.1230 C.ar      1 M5D         0.1782
      3 C4         37.8610   12.1250   34.0410 C.ar      1 M5D         0.0641
      4 C5         38.2090   13.4180   34.4980 C.ar      1 M5D         0.1444
      5 C8         39.9040   15.0810   35.3850 C.3       1 M5D         0.0561
      6 C12        41.7080   13.1180   35.9420 C.3       1 M5D         0.0550
      7 C16        43.3260   14.4120   32.6460 C.3       1 M5D         0.0519
      8 C18        44.6220   14.1030   31.8910 C.3       1 M5D        -0.0280
      9 C19        44.5350   15.3430   32.7880 C.3       1 M5D        -0.0218
     10 C21        44.5210   16.7070   32.0970 C.3       1 M5D        -0.0599
     11 C23        34.6920   12.5830   32.4080 C.1       1 M5D         0.1094
     12 C30        32.2910   17.2700   32.8640 C.3       1 M5D         0.0636
     13 N3         36.7360   11.9170   33.3860 N.ar      1 M5D        -0.2586
     14 N6         37.3460   14.4080   34.2390 N.ar      1 M5D        -0.2575
     15 N7         39.4070   13.6900   35.1920 N.pl3     1 M5D        -0.2800
     16 C9         41.2610   15.2240   34.6550 C.3       1 M5D         0.0629
     17 N11        42.0350   13.9630   34.7710 N.am      1 M5D        -0.2662
     18 C13        40.2670   12.6130   35.7530 C.3       1 M5D         0.0536
     19 C14        42.9720   13.5710   33.8550 C.2       1 M5D         0.1822
     20 O15        43.5660   12.5150   33.9980 O.2       1 M5D        -0.3966
     21 C22        42.0640   16.4060   35.2070 C.3       1 M5D        -0.0398
     22 N24        33.7950   12.1850   31.8330 N.1       1 M5D        -0.3334
     23 C25        35.3460   15.4150   33.3570 C.2       1 M5D         0.0321
     24 C26        35.8220   16.7410   33.3320 C.2       1 M5D         0.0135
     25 N27        34.8110   17.5460   33.1530 N.2       1 M5D        -0.2088
     26 N28        33.6530   16.7730   33.0580 N.pl3     1 M5D        -0.1989
     27 C29        33.9880   15.4810   33.1910 C.2       1 M5D         0.0760
     28 H1         38.5292   11.2932   34.2323 H         1 M5D         0.0812
     29 H2         40.0373   15.2817   36.4583 H         1 M5D         0.0550
     30 H3         39.1801   15.7951   34.9655 H         1 M5D         0.0550
     31 H4         41.7812   13.7104   36.8660 H         1 M5D         0.0543
     32 H5         42.4014   12.2659   35.9968 H         1 M5D         0.0543
     33 H6         42.4199   14.7249   32.1065 H         1 M5D         0.0541
     34 H7         44.6621   14.2169   30.7977 H         1 M5D         0.0296
     35 H8         45.2443   13.2479   32.1936 H         1 M5D         0.0296
     36 H9         45.0872   15.3988   33.7377 H         1 M5D         0.0327
     37 H10        44.4563   17.5014   32.8551 H         1 M5D         0.0234
     38 H11        43.6518   16.7691   31.4258 H         1 M5D         0.0234
     39 H12        45.4448   16.8318   31.5131 H         1 M5D         0.0234
     40 H13        31.5924   16.4210   32.8291 H         1 M5D         0.0611
     41 H14        32.2359   17.8292   31.9184 H         1 M5D         0.0611
     42 H15        32.0204   17.9334   33.6987 H         1 M5D         0.0611
     43 H16        41.0621   15.4124   33.5897 H         1 M5D         0.0576
     44 H17        39.8633   12.2975   36.7264 H         1 M5D         0.0548
     45 H18        40.2711   11.7566   35.0627 H         1 M5D         0.0548
     46 H19        43.0209   16.4819   34.6699 H         1 M5D         0.0253
     47 H20        42.2565   16.2500   36.2787 H         1 M5D         0.0253
     48 H21        41.4913   17.3349   35.0687 H         1 M5D         0.0253
     49 H22        36.8621   17.0439   33.4437 H         1 M5D         0.0699
     50 H23        33.3024   14.6352   33.1706 H         1 M5D         0.1128
@<TRIPOS>BOND
     1    1    2 ar 
     2    1   14 ar 
     3   23    1 1  
     4    2   11 1  
     5    2   13 ar 
     6    4    3 ar 
     7   13    3 ar 
     8   14    4 ar 
     9    4   15 1  
    10   15    5 1  
    11    5   16 1  
    12    6   17 1  
    13   18    6 1  
    14    7    8 1  
    15    7    9 1  
    16   19    7 1  
    17    9    8 1  
    18    9   10 1  
    19   11   22 3  
    20   26   12 1  
    21   15   18 1  
    22   16   17 1  
    23   16   21 1  
    24   17   19 am 
    25   19   20 2  
    26   24   23 1  
    27   23   27 2  
    28   25   24 2  
    29   25   26 1  
    30   26   27 1  
    31    3   28 1  
    32    5   29 1  
    33    5   30 1  
    34    6   31 1  
    35    6   32 1  
    36    7   33 1  
    37    8   34 1  
    38    8   35 1  
    39    9   36 1  
    40   10   37 1  
    41   10   38 1  
    42   10   39 1  
    43   12   40 1  
    44   12   41 1  
    45   12   42 1  
    46   16   43 1  
    47   18   44 1  
    48   18   45 1  
    49   21   46 1  
    50   21   47 1  
    51   21   48 1  
    52   24   49 1  
    53   27   50 1  
@<TRIPOS>SUBSTRUCTURE
     1 M5D         1

