### 
### Created by X-TOOL on Mon Aug  2 16:12:04 2021
### 

@<TRIPOS>MOLECULE
6ocw_ligand
   68    70     1     0     0
SMALL
GAST_HUCK


@<TRIPOS>ATOM
      1 C21        76.5240  -26.4610  197.7710 C.2       1 M6M        -0.0165
      2 C22        76.9160  -25.1900  198.1420 C.2       1 M6M         0.1392
      3 C23        78.2320  -24.5260  197.7750 C.3       1 M6M         0.0097
      4 O24        75.8990  -24.6660  198.8800 O.3       1 M6M        -0.1606
      5 N25        74.8820  -25.5970  198.9730 N.2       1 M6M        -0.1328
      6 C20        75.2460  -26.6770  198.3200 C.2       1 M6M         0.1131
      7 C18        74.4160  -27.9420  198.1600 C.2       1 M6M         0.2114
      8 O19        74.8900  -29.0130  198.2190 O.2       1 M6M        -0.3853
      9 C13        67.8640  -24.7160  198.5510 C.3       1 M6M        -0.0491
     10 C15        68.0630  -26.8860  197.4490 C.3       1 M6M         0.0422
     11 C04        72.6340  -29.7310  196.4430 C.2       1 M6M         0.2062
     12 C06        72.2350  -29.0330  197.7360 C.3       1 M6M         0.1472
     13 C07        70.7610  -28.6980  197.5670 C.3       1 M6M         0.0777
     14 C08        70.0350  -28.2240  198.8530 C.2       1 M6M         0.1832
     15 C11        67.8400  -26.7820  199.7890 C.3       1 M6M         0.0342
     16 C12        67.7110  -25.2650  199.7980 C.3       1 M6M        -0.0324
     17 C14        67.3920  -25.5080  197.5320 C.3       1 M6M        -0.0299
     18 C16        67.0580  -27.9330  197.0940 C.3       1 M6M        -0.0418
     19 N10        68.8270  -27.3950  198.7330 N.am      1 M6M        -0.2703
     20 N17        72.9700  -27.8190  197.8850 N.am      1 M6M        -0.2628
     21 O05        72.8450  -29.1490  195.4310 O.2       1 M6M        -0.3942
     22 O09        70.4620  -28.5200  199.9040 O.2       1 M6M        -0.3966
     23 N03        72.7340  -31.1750  196.5610 N.am      1 M6M        -0.2639
     24 C02        73.0670  -32.0600  195.4450 C.3       1 M6M         0.1282
     25 C26        71.6740  -32.5490  195.0320 C.2       1 M6M         0.2031
     26 O27        70.9210  -32.9250  195.8670 O.2       1 M6M        -0.3944
     27 C01        73.9060  -33.1820  196.0020 C.3       1 M6M        -0.0244
     28 C29        69.8430  -33.0260  193.3100 C.3       1 M6M         0.0636
     29 C30        69.1540  -32.0730  192.2830 C.ar      1 M6M         0.0089
     30 C31        69.4590  -32.2060  190.9560 C.ar      1 M6M        -0.0617
     31 C32        68.8540  -31.3630  190.0220 C.ar      1 M6M        -0.0389
     32 C33        67.9420  -30.4010  190.4470 C.ar      1 M6M         0.1231
     33 C35        67.6380  -30.2770  191.7920 C.ar      1 M6M        -0.0014
     34 C36        68.2360  -31.1140  192.7070 C.ar      1 M6M         0.1335
     35 F34        67.3420  -29.5660  189.5420 F         1 M6M        -0.1903
     36 F37        67.9280  -30.9840  194.0300 F         1 M6M        -0.1900
     37 N28        71.1980  -32.5410  193.6190 N.am      1 M6M        -0.2749
     38 H1         77.0960  -27.1640  197.1672 H         1 M6M         0.0312
     39 H2         78.2668  -23.5160  198.2095 H         1 M6M         0.0449
     40 H3         78.3153  -24.4573  196.6803 H         1 M6M         0.0449
     41 H4         79.0669  -25.1238  198.1695 H         1 M6M         0.0449
     42 H5         68.9357  -24.5354  198.3812 H         1 M6M         0.0267
     43 H6         67.3223  -23.7590  198.5251 H         1 M6M         0.0267
     44 H7         68.8025  -26.8236  196.6370 H         1 M6M         0.0555
     45 H8         72.3990  -29.6873  198.6049 H         1 M6M         0.0826
     46 H9         70.2480  -29.5993  197.2003 H         1 M6M         0.0551
     47 H10        70.6786  -27.8981  196.8164 H         1 M6M         0.0551
     48 H11        66.8415  -27.2012  199.5959 H         1 M6M         0.0522
     49 H12        68.1821  -27.0942  200.7867 H         1 M6M         0.0522
     50 H13        66.7148  -24.9983  200.1807 H         1 M6M         0.0285
     51 H14        68.4825  -24.8497  200.4630 H         1 M6M         0.0285
     52 H15        67.5607  -24.9835  196.5799 H         1 M6M         0.0287
     53 H16        66.3126  -25.6576  197.6820 H         1 M6M         0.0287
     54 H17        67.5538  -28.9133  197.0385 H         1 M6M         0.0252
     55 H18        66.6082  -27.6940  196.1191 H         1 M6M         0.0252
     56 H19        66.2721  -27.9627  197.8631 H         1 M6M         0.0252
     57 H20        72.5265  -26.9261  197.8068 H         1 M6M         0.1879
     58 H21        72.5656  -31.5878  197.4561 H         1 M6M         0.1883
     59 H22        73.5887  -31.5458  194.6244 H         1 M6M         0.0797
     60 H23        74.1789  -33.8732  195.1910 H         1 M6M         0.0277
     61 H24        73.3318  -33.7239  196.7679 H         1 M6M         0.0277
     62 H25        74.8195  -32.7676  196.4534 H         1 M6M         0.0277
     63 H26        69.9073  -34.0372  192.8819 H         1 M6M         0.0668
     64 H27        69.2477  -33.0564  194.2345 H         1 M6M         0.0668
     65 H28        70.1659  -32.9611  190.6318 H         1 M6M         0.0537
     66 H29        69.0937  -31.4573  188.9690 H         1 M6M         0.0552
     67 H30        66.9321  -29.5240  192.1233 H         1 M6M         0.0572
     68 H31        71.7940  -32.2091  192.8878 H         1 M6M         0.1876
@<TRIPOS>BOND
     1    1    2 2  
     2    6    1 1  
     3    2    3 1  
     4    4    2 1  
     5    5    4 1  
     6    6    5 2  
     7    7    6 1  
     8    7    8 2  
     9   20    7 am 
    10   16    9 1  
    11   17    9 1  
    12   10   17 1  
    13   10   18 1  
    14   19   10 1  
    15   11   12 1  
    16   11   21 2  
    17   23   11 am 
    18   12   13 1  
    19   12   20 1  
    20   13   14 1  
    21   14   19 am 
    22   14   22 2  
    23   15   16 1  
    24   19   15 1  
    25   24   23 1  
    26   25   24 1  
    27   24   27 1  
    28   25   26 2  
    29   37   25 am 
    30   28   29 1  
    31   28   37 1  
    32   29   30 ar 
    33   29   34 ar 
    34   30   31 ar 
    35   31   32 ar 
    36   32   33 ar 
    37   32   35 1  
    38   33   34 ar 
    39   34   36 1  
    40    1   38 1  
    41    3   39 1  
    42    3   40 1  
    43    3   41 1  
    44    9   42 1  
    45    9   43 1  
    46   10   44 1  
    47   12   45 1  
    48   13   46 1  
    49   13   47 1  
    50   15   48 1  
    51   15   49 1  
    52   16   50 1  
    53   16   51 1  
    54   17   52 1  
    55   17   53 1  
    56   18   54 1  
    57   18   55 1  
    58   18   56 1  
    59   20   57 1  
    60   23   58 1  
    61   24   59 1  
    62   27   60 1  
    63   27   61 1  
    64   27   62 1  
    65   28   63 1  
    66   28   64 1  
    67   30   65 1  
    68   31   66 1  
    69   33   67 1  
    70   37   68 1  
@<TRIPOS>SUBSTRUCTURE
     1 M6M         1

