### 
### Created by X-TOOL on Mon Aug  2 16:12:05 2021
### 

@<TRIPOS>MOLECULE
6ocz_ligand
   72    75     1     0     0
SMALL
GAST_HUCK


@<TRIPOS>ATOM
      1 C25        76.6190  -26.6590  199.9000 C.2       1 M6Y        -0.0165
      2 C26        77.0870  -25.3540  199.9470 C.2       1 M6Y         0.1392
      3 C27        78.5370  -24.9020  199.8020 C.3       1 M6Y         0.0097
      4 O28        76.0190  -24.5620  200.1450 O.3       1 M6Y        -0.1606
      5 N29        74.9040  -25.3430  200.2220 N.2       1 M6Y        -0.1328
      6 C24        75.2430  -26.6120  200.0800 C.2       1 M6Y         0.1131
      7 C22        74.2850  -27.8040  200.1010 C.2       1 M6Y         0.2114
      8 O23        74.6850  -28.8910  200.3480 O.2       1 M6Y        -0.3853
      9 C13        67.9360  -24.6470  200.1750 C.3       1 M6Y        -0.0179
     10 C15        67.6320  -26.5710  198.9190 C.ar      1 M6Y        -0.0178
     11 C17        66.0840  -28.3800  198.6890 C.ar      1 M6Y        -0.0685
     12 C20        67.4110  -26.2130  197.5980 C.ar      1 M6Y        -0.0581
     13 C04        72.1880  -29.5470  198.5480 C.2       1 M6Y         0.2062
     14 C06        71.9760  -28.7340  199.8220 C.3       1 M6Y         0.1472
     15 C07        70.5310  -28.2440  199.8300 C.3       1 M6Y         0.0778
     16 C08        69.9470  -27.7050  201.1330 C.2       1 M6Y         0.1851
     17 C11        68.4640  -25.9940  202.1380 C.3       1 M6Y         0.0366
     18 C12        67.3470  -25.0590  201.5430 C.3       1 M6Y        -0.0284
     19 C14        68.5870  -25.7550  199.7590 C.3       1 M6Y         0.0785
     20 C16        66.9650  -27.6490  199.4680 C.ar      1 M6Y        -0.0581
     21 C18        65.8680  -28.0270  197.3660 C.ar      1 M6Y        -0.0687
     22 C19        66.5310  -26.9410  196.8190 C.ar      1 M6Y        -0.0685
     23 N10        69.0450  -26.5640  201.0920 N.am      1 M6Y        -0.2587
     24 N21        72.8750  -27.6010  199.8090 N.am      1 M6Y        -0.2628
     25 O05        72.4390  -29.0110  197.5180 O.2       1 M6Y        -0.3942
     26 O09        70.2160  -28.2110  202.1680 O.2       1 M6Y        -0.3965
     27 N03        72.0730  -30.9970  198.6150 N.am      1 M6Y        -0.2639
     28 C02        72.2490  -31.8150  197.4260 C.3       1 M6Y         0.1282
     29 C30        70.8630  -32.3030  196.9890 C.2       1 M6Y         0.2031
     30 O31        70.0740  -32.6720  197.7950 O.2       1 M6Y        -0.3944
     31 C01        73.1380  -32.9990  197.7870 C.3       1 M6Y        -0.0244
     32 C33        69.1530  -32.7880  195.2210 C.3       1 M6Y         0.0636
     33 C34        68.5620  -31.8840  194.1360 C.ar      1 M6Y         0.0089
     34 C35        68.6780  -32.2410  192.8040 C.ar      1 M6Y        -0.0617
     35 C36        68.1380  -31.4230  191.8200 C.ar      1 M6Y        -0.0389
     36 C37        67.4930  -30.2490  192.1710 C.ar      1 M6Y         0.1231
     37 C39        67.3780  -29.8900  193.5030 C.ar      1 M6Y        -0.0014
     38 C40        67.9130  -30.7100  194.4830 C.ar      1 M6Y         0.1335
     39 F38        66.9710  -29.4440  191.2070 F         1 M6Y        -0.1903
     40 F41        67.7960  -30.3580  195.7920 F         1 M6Y        -0.1900
     41 N32        70.4830  -32.3180  195.5880 N.am      1 M6Y        -0.2749
     42 H1         77.2197  -27.5548  199.7497 H         1 M6Y         0.0312
     43 H2         78.5894  -23.8063  199.8841 H         1 M6Y         0.0449
     44 H3         78.9222  -25.2150  198.8204 H         1 M6Y         0.0449
     45 H4         79.1447  -25.3587  200.5970 H         1 M6Y         0.0449
     46 H5         68.6315  -23.8021  200.2860 H         1 M6Y         0.0310
     47 H6         67.1368  -24.3740  199.4702 H         1 M6Y         0.0310
     48 H7         65.5624  -29.2297  199.1144 H         1 M6Y         0.0599
     49 H8         67.9295  -25.3602  197.1749 H         1 M6Y         0.0557
     50 H9         72.1697  -29.3561  200.7083 H         1 M6Y         0.0826
     51 H10        69.9006  -29.0898  199.5181 H         1 M6Y         0.0551
     52 H11        70.4583  -27.4381  199.0849 H         1 M6Y         0.0551
     53 H12        68.0177  -26.7571  202.7926 H         1 M6Y         0.0524
     54 H13        69.1954  -25.4033  202.7090 H         1 M6Y         0.0524
     55 H14        66.3996  -25.6039  201.4183 H         1 M6Y         0.0287
     56 H15        67.1831  -24.1805  202.1843 H         1 M6Y         0.0287
     57 H16        69.4702  -25.4849  199.1615 H         1 M6Y         0.0722
     58 H17        67.1306  -27.9214  200.5041 H         1 M6Y         0.0557
     59 H18        65.1788  -28.6021  196.7583 H         1 M6Y         0.0559
     60 H19        66.3607  -26.6632  195.7851 H         1 M6Y         0.0599
     61 H20        72.5298  -26.6858  199.6010 H         1 M6Y         0.1879
     62 H21        71.8703  -31.4360  199.4903 H         1 M6Y         0.1883
     63 H22        72.7143  -31.2283  196.6202 H         1 M6Y         0.0797
     64 H23        73.2840  -33.6319  196.8993 H         1 M6Y         0.0277
     65 H24        72.6587  -33.5883  198.5826 H         1 M6Y         0.0277
     66 H25        74.1130  -32.6314  198.1396 H         1 M6Y         0.0277
     67 H26        69.2223  -33.8176  194.8401 H         1 M6Y         0.0668
     68 H27        68.5017  -32.7679  196.1072 H         1 M6Y         0.0668
     69 H28        69.1890  -33.1567  192.5294 H         1 M6Y         0.0537
     70 H29        68.2215  -31.7038  190.7763 H         1 M6Y         0.0552
     71 H30        66.8718  -28.9717  193.7778 H         1 M6Y         0.0572
     72 H31        71.1243  -32.0104  194.8851 H         1 M6Y         0.1876
@<TRIPOS>BOND
     1    1    2 2  
     2    6    1 1  
     3    2    3 1  
     4    4    2 1  
     5    5    4 1  
     6    6    5 2  
     7    7    6 1  
     8    7    8 2  
     9   24    7 am 
    10    9   18 1  
    11   19    9 1  
    12   10   12 ar 
    13   19   10 1  
    14   10   20 ar 
    15   20   11 ar 
    16   11   21 ar 
    17   12   22 ar 
    18   13   14 1  
    19   13   25 2  
    20   27   13 am 
    21   14   15 1  
    22   14   24 1  
    23   15   16 1  
    24   16   23 am 
    25   16   26 2  
    26   17   18 1  
    27   23   17 1  
    28   23   19 1  
    29   22   21 ar 
    30   28   27 1  
    31   29   28 1  
    32   28   31 1  
    33   29   30 2  
    34   41   29 am 
    35   32   33 1  
    36   32   41 1  
    37   33   34 ar 
    38   33   38 ar 
    39   34   35 ar 
    40   35   36 ar 
    41   36   37 ar 
    42   36   39 1  
    43   37   38 ar 
    44   38   40 1  
    45    1   42 1  
    46    3   43 1  
    47    3   44 1  
    48    3   45 1  
    49    9   46 1  
    50    9   47 1  
    51   11   48 1  
    52   12   49 1  
    53   14   50 1  
    54   15   51 1  
    55   15   52 1  
    56   17   53 1  
    57   17   54 1  
    58   18   55 1  
    59   18   56 1  
    60   19   57 1  
    61   20   58 1  
    62   21   59 1  
    63   22   60 1  
    64   24   61 1  
    65   27   62 1  
    66   28   63 1  
    67   31   64 1  
    68   31   65 1  
    69   31   66 1  
    70   32   67 1  
    71   32   68 1  
    72   34   69 1  
    73   35   70 1  
    74   37   71 1  
    75   41   72 1  
@<TRIPOS>SUBSTRUCTURE
     1 M6Y         1

