### 
### Created by X-TOOL on Mon Aug  2 16:15:39 2021
### 

@<TRIPOS>MOLECULE
6od6_ligand
   47    50     1     0     0
SMALL
GAST_HUCK


@<TRIPOS>ATOM
      1 C2        -30.2300  -46.4360   17.2360 C.1       1 M7D         0.1128
      2 C3        -31.6120  -46.0860   17.1710 C.ar      1 M7D         0.1267
      3 C4        -32.0310  -45.0280   16.3670 C.ar      1 M7D        -0.0031
      4 C5        -33.3840  -44.7040   16.3180 C.ar      1 M7D        -0.0036
      5 C6        -34.2450  -45.4710   17.0840 C.ar      1 M7D         0.1362
      6 C8        -32.5610  -46.7890   17.9010 C.ar      1 M7D         0.0510
      7 C12       -37.7690  -45.4820   18.2340 C.ar      1 M7D         0.0911
      8 C15       -40.4500  -44.9920   18.8250 C.ar      1 M7D         0.1528
      9 C17       -39.9280  -44.6100   17.5880 C.ar      1 M7D        -0.0061
     10 C18       -38.5870  -44.8590   17.2890 C.ar      1 M7D        -0.0112
     11 C19       -40.1740  -46.0590   21.1390 C.3       1 M7D         0.1203
     12 C24       -38.3580  -44.9370   22.9190 C.2       1 M7D         0.1010
     13 C27       -39.3370  -42.9110   22.9370 C.2       1 M7D         0.0137
     14 C13       -38.2970  -45.8670   19.4680 C.ar      1 M7D        -0.0185
     15 C14       -39.6380  -45.6220   19.7680 C.ar      1 M7D         0.0191
     16 C20       -41.3640  -46.9510   20.9130 C.3       1 M7D        -0.0417
     17 C22       -38.2670  -46.3620   22.6730 C.cat     1 M7D         0.2463
     18 C25       -37.4530  -44.0440   23.4570 C.2       1 M7D        -0.0820
     19 C26       -38.0720  -42.7680   23.4670 C.2       1 M7D        -0.0873
     20 C29       -40.6300  -44.8740   22.0260 C.3       1 M7D         0.0744
     21 C9        -35.6660  -45.1300   17.0310 C.2       1 M7D         0.2558
     22 F16       -41.7410  -44.7560   19.1050 F         1 M7D        -0.1644
     23 N1        -29.1050  -46.7170   17.2840 N.1       1 M7D        -0.3219
     24 N11       -36.4140  -45.7590   17.9910 N.am      1 M7D        -0.2263
     25 N21       -39.1360  -46.8610   21.8390 N.pl3     1 M7D        -0.2877
     26 N23       -37.3190  -47.1250   23.2940 N.pl3     1 M7D        -0.2722
     27 N28       -39.4840  -44.2210   22.6150 N.pl3     1 M7D        -0.2816
     28 N7        -33.8830  -46.5050   17.8750 N.ar      1 M7D        -0.2641
     29 O10       -36.0590  -44.3510   16.1780 O.2       1 M7D        -0.3646
     30 H1        -31.3111  -44.4632   15.7858 H         1 M7D         0.0844
     31 H2        -33.7477  -43.8863   15.7063 H         1 M7D         0.0781
     32 H3        -32.2244  -47.6091   18.5249 H         1 M7D         0.0939
     33 H4        -40.5638  -44.1200   16.8595 H         1 M7D         0.0657
     34 H5        -38.1820  -44.5695   16.3261 H         1 M7D         0.0763
     35 H6        -40.0767  -42.1232   22.8025 H         1 M7D         0.0796
     36 H7        -37.6624  -46.3585   20.1965 H         1 M7D         0.0677
     37 H8        -41.7667  -47.2779   21.8831 H         1 M7D         0.0172
     38 H9        -41.0571  -47.8307   20.3282 H         1 M7D         0.0172
     39 H10       -42.1385  -46.3967   20.3625 H         1 M7D         0.0172
     40 H11       -36.4490  -44.2765   23.8088 H         1 M7D         0.0273
     41 H12       -37.6280  -41.8416   23.8284 H         1 M7D         0.0273
     42 H13       -41.2847  -45.2500   22.8260 H         1 M7D         0.0562
     43 H14       -41.1831  -44.1504   21.4092 H         1 M7D         0.0562
     44 H15       -35.9686  -46.4568   18.5520 H         1 M7D         0.2251
     45 H16       -39.1013  -47.8736   21.6535 H         1 M7D         0.3097
     46 H17       -36.6521  -46.6879   23.9460 H         1 M7D         0.3180
     47 H18       -37.2712  -48.1373   23.1102 H         1 M7D         0.3180
@<TRIPOS>BOND
     1    2    1 1  
     2    1   23 3  
     3    3    2 ar 
     4    6    2 ar 
     5    4    3 ar 
     6    5    4 ar 
     7   21    5 1  
     8    5   28 ar 
     9   28    6 ar 
    10    7   10 ar 
    11    7   14 ar 
    12   24    7 1  
    13    9    8 ar 
    14   15    8 ar 
    15    8   22 1  
    16   10    9 ar 
    17   15   11 1  
    18   11   16 1  
    19   11   20 1  
    20   11   25 1  
    21   17   12 1  
    22   12   18 2  
    23   27   12 1  
    24   13   19 2  
    25   27   13 1  
    26   14   15 ar 
    27   25   17 ar 
    28   17   26 ar 
    29   18   19 1  
    30   20   27 1  
    31   21   24 am 
    32   21   29 2  
    33    3   30 1  
    34    4   31 1  
    35    6   32 1  
    36    9   33 1  
    37   10   34 1  
    38   13   35 1  
    39   14   36 1  
    40   16   37 1  
    41   16   38 1  
    42   16   39 1  
    43   18   40 1  
    44   19   41 1  
    45   20   42 1  
    46   20   43 1  
    47   24   44 1  
    48   25   45 1  
    49   26   46 1  
    50   26   47 1  
@<TRIPOS>SUBSTRUCTURE
     1 M7D         1

