### 
### Created by X-TOOL on Mon Aug  2 16:15:39 2021
### 

@<TRIPOS>MOLECULE
6ode_ligand
   70    74     1     0     0
SMALL
GAST_HUCK


@<TRIPOS>ATOM
      1 C27        79.1680  -26.4810  198.0470 C.2       1 M9G        -0.0165
      2 C25        79.6320  -25.1850  198.1590 C.2       1 M9G         0.1392
      3 C26        81.0500  -24.7270  197.8930 C.3       1 M9G         0.0097
      4 O24        78.6000  -24.4240  198.5410 O.3       1 M9G        -0.1606
      5 N23        77.5010  -25.2190  198.6700 N.2       1 M9G        -0.1328
      6 C22        77.8280  -26.4550  198.3810 C.2       1 M9G         0.1131
      7 C20        76.8920  -27.6370  198.3930 C.2       1 M9G         0.2114
      8 O21        77.3060  -28.7610  198.2200 O.2       1 M9G        -0.3853
      9 C38        70.4450  -24.3120  199.2910 C.3       1 M9G        -0.0095
     10 C32        70.0620  -26.3620  198.1980 C.ar      1 M9G        -0.0111
     11 C36        68.9280  -27.1890  196.2300 C.ar      1 M9G        -0.0685
     12 C33        69.3800  -27.3010  198.9820 C.ar      1 M9G        -0.0575
     13 C16        74.5300  -29.2340  197.2910 C.2       1 M9G         0.2065
     14 C18        74.5070  -28.4730  198.6390 C.3       1 M9G         0.1477
     15 C28        73.0490  -27.9540  198.8320 C.3       1 M9G         0.0836
     16 C29        72.6660  -27.2520  200.1750 C.2       1 M9G         0.2106
     17 C40        71.2790  -25.2330  201.3640 C.2       1 M9G         0.0151
     18 C39        70.3110  -24.4040  200.9230 C.2       1 M9G        -0.0886
     19 C31        71.0910  -25.3620  198.8720 C.3       1 M9G         0.0998
     20 C37        69.8290  -26.3110  196.8150 C.ar      1 M9G        -0.0575
     21 C35        68.2450  -28.1340  197.0210 C.ar      1 M9G        -0.0687
     22 C34        68.4760  -28.1830  198.3950 C.ar      1 M9G        -0.0685
     23 N30        71.7510  -26.0390  200.1570 N.am      1 M9G        -0.2213
     24 N19        75.4250  -27.3910  198.6190 N.am      1 M9G        -0.2628
     25 O17        74.7630  -28.6510  196.2540 O.2       1 M9G        -0.3942
     26 O41        73.0840  -27.6590  201.1760 O.2       1 M9G        -0.3849
     27 C10        69.7930  -30.5420  189.8550 C.ar      1 M9G        -0.0684
     28 C13        70.7960  -30.4720  194.9770 C.2       1 M9G         0.0405
     29 C01        74.3110  -32.9110  196.2550 C.3       1 M9G        -0.0256
     30 C02        74.2340  -31.4330  196.0310 C.3       1 M9G         0.1155
     31 C03        72.8580  -31.0720  195.2880 C.2       1 M9G         0.1406
     32 C05        71.4060  -30.7110  193.7190 C.2       1 M9G         0.0129
     33 C06        70.8360  -30.6200  192.4320 C.ar      1 M9G         0.0029
     34 C07        69.8640  -29.6710  192.1130 C.ar      1 M9G         0.1333
     35 C09        69.3430  -29.6360  190.8230 C.ar      1 M9G        -0.0327
     36 C11        70.7650  -31.4860  190.1740 C.ar      1 M9G        -0.0706
     37 C12        71.2820  -31.5170  191.4630 C.ar      1 M9G        -0.0631
     38 F08        69.4210  -28.7840  193.0610 F         1 M9G        -0.1861
     39 N04        72.6590  -31.0790  193.9690 N.2       1 M9G        -0.3270
     40 N14        71.7170  -30.6990  195.9010 N.pl3     1 M9G        -0.2568
     41 N15        74.2390  -30.7210  197.2850 N.am      1 M9G        -0.2645
     42 H1         79.7470  -27.3549  197.7522 H         1 M9G         0.0312
     43 H2         81.1232  -23.6428  198.0635 H         1 M9G         0.0449
     44 H3         81.3190  -24.9532  196.8507 H         1 M9G         0.0449
     45 H4         81.7383  -25.2521  198.5716 H         1 M9G         0.0449
     46 H5         70.9967  -23.4015  199.0142 H         1 M9G         0.0382
     47 H6         69.4435  -24.2863  198.8368 H         1 M9G         0.0382
     48 H7         68.7491  -27.1478  195.1617 H         1 M9G         0.0599
     49 H8         69.5566  -27.3415  200.0508 H         1 M9G         0.0558
     50 H9         74.7733  -29.1558  199.4593 H         1 M9G         0.0826
     51 H10        72.3808  -28.8205  198.7193 H         1 M9G         0.0556
     52 H11        72.8539  -27.2330  198.0244 H         1 M9G         0.0556
     53 H12        71.6518  -25.3120  202.3841 H         1 M9G         0.0803
     54 H13        69.5745  -23.8894  201.5384 H         1 M9G         0.0218
     55 H14        71.8676  -25.0764  198.1473 H         1 M9G         0.0802
     56 H15        70.3532  -25.5854  196.2036 H         1 M9G         0.0558
     57 H16        67.5423  -28.8206  196.5628 H         1 M9G         0.0559
     58 H17        67.9517  -28.9081  199.0069 H         1 M9G         0.0599
     59 H18        75.0941  -26.4574  198.7562 H         1 M9G         0.1879
     60 H19        69.3825  -30.5082  188.8523 H         1 M9G         0.0567
     61 H20        69.7667  -30.1612  195.1500 H         1 M9G         0.0861
     62 H21        75.2547  -33.1560  196.7643 H         1 M9G         0.0280
     63 H22        74.2712  -33.4312  195.2866 H         1 M9G         0.0280
     64 H23        73.4637  -33.2320  196.8788 H         1 M9G         0.0280
     65 H24        75.0893  -31.1131  195.4177 H         1 M9G         0.0795
     66 H25        68.5856  -28.9042  190.5665 H         1 M9G         0.0590
     67 H26        71.1142  -32.1883  189.4258 H         1 M9G         0.0571
     68 H27        72.0412  -32.2474  191.7182 H         1 M9G         0.0565
     69 H28        71.5837  -30.6061  196.9181 H         1 M9G         0.2400
     70 H29        74.0525  -31.2032  198.1410 H         1 M9G         0.1888
@<TRIPOS>BOND
     1    1    2 2  
     2    6    1 1  
     3    2    3 1  
     4    4    2 1  
     5    5    4 1  
     6    6    5 2  
     7    7    6 1  
     8    7    8 2  
     9   24    7 am 
    10    9   18 1  
    11   19    9 1  
    12   10   12 ar 
    13   19   10 1  
    14   10   20 ar 
    15   20   11 ar 
    16   11   21 ar 
    17   12   22 ar 
    18   13   14 1  
    19   13   25 2  
    20   41   13 am 
    21   14   15 1  
    22   14   24 1  
    23   15   16 1  
    24   16   23 am 
    25   16   26 2  
    26   17   18 2  
    27   23   17 1  
    28   23   19 1  
    29   22   21 ar 
    30   35   27 ar 
    31   27   36 ar 
    32   32   28 2  
    33   28   40 1  
    34   30   29 1  
    35   31   30 1  
    36   30   41 1  
    37   39   31 2  
    38   31   40 1  
    39   33   32 1  
    40   32   39 1  
    41   34   33 ar 
    42   33   37 ar 
    43   34   35 ar 
    44   34   38 1  
    45   36   37 ar 
    46    1   42 1  
    47    3   43 1  
    48    3   44 1  
    49    3   45 1  
    50    9   46 1  
    51    9   47 1  
    52   11   48 1  
    53   12   49 1  
    54   14   50 1  
    55   15   51 1  
    56   15   52 1  
    57   17   53 1  
    58   18   54 1  
    59   19   55 1  
    60   20   56 1  
    61   21   57 1  
    62   22   58 1  
    63   24   59 1  
    64   27   60 1  
    65   28   61 1  
    66   29   62 1  
    67   29   63 1  
    68   29   64 1  
    69   30   65 1  
    70   35   66 1  
    71   36   67 1  
    72   37   68 1  
    73   40   69 1  
    74   41   70 1  
@<TRIPOS>SUBSTRUCTURE
     1 M9G         1

