### 
### Created by X-TOOL on Mon Aug  2 16:15:39 2021
### 

@<TRIPOS>MOLECULE
6odz_ligand
   43    45     1     0     0
SMALL
GAST_HUCK


@<TRIPOS>ATOM
      1 C14        -2.3940    5.3920   84.6540 C.ar      1 M8J        -0.0394
      2 C22        -0.2170    4.3660   84.7670 C.ar      1 M8J        -0.0394
      3 C15        -2.9220    4.3480   85.3860 C.ar      1 M8J        -0.0490
      4 C21        -0.7450    3.3330   85.5010 C.ar      1 M8J        -0.0490
      5 C13        -1.0510    5.3760   84.3540 C.ar      1 M8J         0.0664
      6 C16        -2.0940    3.3210   85.8120 C.ar      1 M8J         0.0924
      7 C2         -0.6970    9.4280   80.5510 C.2       1 M8J         0.2572
      8 C24         0.5100   10.4710   82.1550 C.2       1 M8J         0.2921
      9 C11        -0.9430    7.3190   82.8490 C.2       1 M8J         0.2311
     10 C5         -1.4540   12.7780   79.2100 C.3       1 M8J        -0.0517
     11 C6         -2.4990   12.6290   80.2990 C.3       1 M8J        -0.0517
     12 C4         -0.8200   11.4270   79.0400 C.3       1 M8J        -0.0197
     13 C7         -2.4510   11.1820   80.7160 C.3       1 M8J        -0.0197
     14 C3         -1.0050   10.8630   80.4190 C.3       1 M8J         0.1389
     15 C10         0.2950    7.9900   82.2560 C.3       1 M8J         0.1535
     16 N8         -0.0430   11.4060   81.3360 N.am      1 M8J        -0.2566
     17 N9          0.1260    9.2710   81.6200 N.am      1 M8J        -0.1488
     18 N19        -2.2260    0.5770   86.0760 N.am      1 M8J        -0.2626
     19 N12        -0.3900    6.3610   83.6230 N.am      1 M8J        -0.2319
     20 O1         -1.1410    8.5600   79.8250 O.2       1 M8J        -0.3310
     21 O25         1.1830   10.6630   83.1580 O.2       1 M8J        -0.3909
     22 O23        -2.1510    7.5060   82.6790 O.2       1 M8J        -0.3822
     23 O18        -2.2040    2.1260   88.0840 O.2       1 M8J        -0.1524
     24 O20        -4.2020    2.0770   86.6460 O.2       1 M8J        -0.1524
     25 S17        -2.7650    1.9760   86.7680 S.o2      1 M8J         0.0591
     26 H1         -3.0248    6.2086   84.3218 H         1 M8J         0.0503
     27 H2          0.8379    4.3841   84.5182 H         1 M8J         0.0503
     28 H3         -3.9788    4.3311   85.6266 H         1 M8J         0.0596
     29 H4         -0.1048    2.5256   85.8375 H         1 M8J         0.0596
     30 H5         -0.6970   13.5182   79.5084 H         1 M8J         0.0264
     31 H6         -1.9277   13.0965   78.2697 H         1 M8J         0.0264
     32 H7         -3.4963   12.8832   79.9107 H         1 M8J         0.0264
     33 H8         -2.2601   13.2818   81.1515 H         1 M8J         0.0264
     34 H9          0.2442   11.5083   78.7739 H         1 M8J         0.0277
     35 H10        -1.3427   10.8255   78.2817 H         1 M8J         0.0277
     36 H11        -3.1355   10.5631   80.1173 H         1 M8J         0.0277
     37 H12        -2.6839   11.0583   81.7839 H         1 M8J         0.0277
     38 H13         0.7119    7.3034   81.5045 H         1 M8J         0.0825
     39 H14         1.0192    8.1227   83.0732 H         1 M8J         0.0825
     40 H15         0.1970   12.3762   81.3694 H         1 M8J         0.1840
     41 H16        -2.4901   -0.3064   86.4631 H         1 M8J         0.1633
     42 H17        -1.6355    0.6131   85.2698 H         1 M8J         0.1633
     43 H18         0.6085    6.3580   83.6780 H         1 M8J         0.2257
@<TRIPOS>BOND
     1    1    3 ar 
     2    5    1 ar 
     3    2    4 ar 
     4    5    2 ar 
     5    3    6 ar 
     6    4    6 ar 
     7   19    5 1  
     8    6   25 1  
     9    7   14 1  
    10   17    7 am 
    11    7   20 2  
    12    8   16 am 
    13   17    8 am 
    14    8   21 2  
    15   15    9 1  
    16    9   19 am 
    17    9   22 2  
    18   11   10 1  
    19   12   10 1  
    20   13   11 1  
    21   14   12 1  
    22   14   13 1  
    23   16   14 1  
    24   15   17 1  
    25   25   18 am 
    26   25   23 2  
    27   25   24 2  
    28    1   26 1  
    29    2   27 1  
    30    3   28 1  
    31    4   29 1  
    32   10   30 1  
    33   10   31 1  
    34   11   32 1  
    35   11   33 1  
    36   12   34 1  
    37   12   35 1  
    38   13   36 1  
    39   13   37 1  
    40   15   38 1  
    41   15   39 1  
    42   16   40 1  
    43   18   41 1  
    44   18   42 1  
    45   19   43 1  
@<TRIPOS>SUBSTRUCTURE
     1 M8J         1

