### 
### Created by X-TOOL on Mon Aug  2 16:15:40 2021
### 

@<TRIPOS>MOLECULE
6oe0_ligand
   49    51     1     0     0
SMALL
GAST_HUCK


@<TRIPOS>ATOM
      1 C16        -0.8690    4.5530   84.6360 C.ar      1 M8S        -0.0394
      2 C24        -3.0880    5.4230   84.7410 C.ar      1 M8S        -0.0394
      3 C17        -1.2450    3.4370   85.3920 C.ar      1 M8S        -0.0490
      4 C23        -3.4390    4.3300   85.4910 C.ar      1 M8S        -0.0490
      5 C15        -1.7990    5.5240   84.3010 C.ar      1 M8S         0.0664
      6 C18        -2.5460    3.3530   85.8150 C.ar      1 M8S         0.0924
      7 C2         -2.9040    9.7500   80.2880 C.2       1 M8S         0.2572
      8 C26        -2.2750    7.6860   79.5460 C.2       1 M8S         0.2921
      9 C13        -2.1950    7.3680   82.6120 C.2       1 M8S         0.2311
     10 C6         -6.3420   10.9600   77.5430 C.3       1 M8S        -0.0531
     11 C7         -5.1880   11.7160   76.9550 C.3       1 M8S        -0.0531
     12 C5         -5.9120    9.5580   77.8950 C.3       1 M8S        -0.0516
     13 C8         -3.9870   11.8900   77.8500 C.3       1 M8S        -0.0516
     14 C4         -5.0710    9.4710   79.1530 C.3       1 M8S        -0.0197
     15 C9         -3.1210   10.6670   78.0170 C.3       1 M8S        -0.0197
     16 C3         -3.5870    9.5920   78.9810 C.3       1 M8S         0.1389
     17 C12        -1.3860    8.3680   81.7560 C.3       1 M8S         0.1535
     18 N10        -3.1390    8.2600   78.6460 N.am      1 M8S        -0.2566
     19 N11        -2.0850    8.6600   80.5160 N.am      1 M8S        -0.1488
     20 N21        -2.4930    0.5520   86.1130 N.am      1 M8S        -0.2626
     21 N14        -1.3900    6.6450   83.4910 N.am      1 M8S        -0.2319
     22 O1         -3.0210   10.7410   80.9960 O.2       1 M8S        -0.3310
     23 O27        -1.7420    6.5800   79.4490 O.2       1 M8S        -0.3909
     24 O25        -3.4100    7.2720   82.4720 O.2       1 M8S        -0.3822
     25 O20        -2.6700    2.0400   88.1180 O.2       1 M8S        -0.1524
     26 O22        -4.5650    2.0490   86.6550 O.2       1 M8S        -0.1524
     27 S19        -3.1030    1.9590   86.7580 S.o2      1 M8S         0.0591
     28 H1          0.1592    4.6588   84.3095 H         1 M8S         0.0503
     29 H2         -3.8168    6.1892   84.5028 H         1 M8S         0.0503
     30 H3         -0.5281    2.6614   85.6360 H         1 M8S         0.0596
     31 H4         -4.4620    4.2401   85.8381 H         1 M8S         0.0596
     32 H5         -7.1611   10.9169   76.8101 H         1 M8S         0.0265
     33 H6         -6.6895   11.4737   78.4515 H         1 M8S         0.0265
     34 H7         -5.5483   12.7174   76.6769 H         1 M8S         0.0265
     35 H8         -4.8599   11.1805   76.0519 H         1 M8S         0.0265
     36 H9         -5.3242    9.1553   77.0570 H         1 M8S         0.0265
     37 H10        -6.8139    8.9448   78.0383 H         1 M8S         0.0265
     38 H11        -4.3464   12.1895   78.8455 H         1 M8S         0.0265
     39 H12        -3.3633   12.6922   77.4286 H         1 M8S         0.0265
     40 H13        -5.2736    8.4972   79.6226 H         1 M8S         0.0277
     41 H14        -5.3951   10.2777   79.8270 H         1 M8S         0.0277
     42 H15        -2.1338   11.0094   78.3608 H         1 M8S         0.0277
     43 H16        -3.0221   10.1982   77.0268 H         1 M8S         0.0277
     44 H17        -0.4030    7.9326   81.5233 H         1 M8S         0.0825
     45 H18        -1.2490    9.3010   82.3224 H         1 M8S         0.0825
     46 H19        -3.4374    7.7886   77.8161 H         1 M8S         0.1840
     47 H20        -2.7156   -0.3280   86.5325 H         1 M8S         0.1633
     48 H21        -1.9037    0.5863   85.3058 H         1 M8S         0.1633
     49 H22        -0.4351    6.9318   83.5674 H         1 M8S         0.2257
@<TRIPOS>BOND
     1    1    3 ar 
     2    5    1 ar 
     3    2    4 ar 
     4    5    2 ar 
     5    3    6 ar 
     6    4    6 ar 
     7   21    5 1  
     8    6   27 1  
     9    7   16 1  
    10   19    7 am 
    11    7   22 2  
    12    8   18 am 
    13   19    8 am 
    14    8   23 2  
    15   17    9 1  
    16    9   21 am 
    17    9   24 2  
    18   11   10 1  
    19   12   10 1  
    20   13   11 1  
    21   14   12 1  
    22   15   13 1  
    23   16   14 1  
    24   16   15 1  
    25   18   16 1  
    26   17   19 1  
    27   27   20 am 
    28   27   25 2  
    29   27   26 2  
    30    1   28 1  
    31    2   29 1  
    32    3   30 1  
    33    4   31 1  
    34   10   32 1  
    35   10   33 1  
    36   11   34 1  
    37   11   35 1  
    38   12   36 1  
    39   12   37 1  
    40   13   38 1  
    41   13   39 1  
    42   14   40 1  
    43   14   41 1  
    44   15   42 1  
    45   15   43 1  
    46   17   44 1  
    47   17   45 1  
    48   18   46 1  
    49   20   47 1  
    50   20   48 1  
    51   21   49 1  
@<TRIPOS>SUBSTRUCTURE
     1 M8S         1

