### 
### Created by X-TOOL on Mon Aug  2 16:15:41 2021
### 

@<TRIPOS>MOLECULE
6oe3_ligand
   47    50     1     0     0
SMALL
GAST_HUCK


@<TRIPOS>ATOM
      1 C1        440.4900   -8.8660  229.7620 C.ar      1 M9A         0.0916
      2 N1        435.9420  -12.6340  224.9830 N.am      1 M9A        -0.1868
      3 O1        436.9570  -10.2330  223.8610 O.3       1 M9A        -0.3178
      4 C2        440.5780   -9.9010  228.8320 C.ar      1 M9A        -0.0337
      5 N2        436.8140  -14.7730  224.7640 N.am      1 M9A        -0.1866
      6 O2        438.1600  -15.7090  226.3350 O.2       1 M9A        -0.4124
      7 C3        440.0880   -9.7510  227.5710 C.ar      1 M9A        -0.0485
      8 O3        435.4130  -13.9360  223.1750 O.2       1 M9A        -0.3815
      9 C4        439.4400   -8.5580  227.1710 C.ar      1 M9A         0.0243
     10 C5        438.8850   -8.3670  225.8750 C.ar      1 M9A         0.1298
     11 C6        438.9850   -9.1310  223.5920 C.ar      1 M9A         0.1474
     12 C7        439.9650   -8.5510  222.8020 C.ar      1 M9A        -0.0360
     13 C8        439.7460   -8.4070  221.4420 C.ar      1 M9A        -0.0806
     14 C9        438.5590   -8.8270  220.8740 C.ar      1 M9A        -0.0809
     15 C10       437.5710   -9.4030  221.6560 C.ar      1 M9A        -0.0401
     16 C11       437.7860   -9.5650  223.0130 C.ar      1 M9A         0.1255
     17 C12       435.7640  -10.8120  223.3250 C.3       1 M9A         0.0959
     18 C13       435.1150  -11.5210  224.4820 C.3       1 M9A         0.0934
     19 C14       436.6200  -12.5030  226.1660 C.2       1 M9A         0.0564
     20 C15       437.3900  -13.4830  226.6670 C.2       1 M9A         0.0061
     21 C16       437.5170  -14.7180  225.9550 C.2       1 M9A         0.1822
     22 C17       436.0160  -13.7870  224.2290 C.2       1 M9A         0.3306
     23 C18       438.1620   -7.2410  225.5700 C.ar      1 M9A         0.0077
     24 C19       438.0020   -6.2840  226.5470 C.ar      1 M9A         0.1244
     25 C20       438.5490   -6.3570  227.7850 C.ar      1 M9A        -0.0311
     26 C21       439.2850   -7.5190  228.1320 C.ar      1 M9A        -0.0152
     27 C22       439.8320   -7.6960  229.4260 C.ar      1 M9A        -0.0231
     28 N         441.7590   -9.0870  232.0020 N.1       1 M9A        -0.3293
     29 C         441.1870   -8.9760  231.0190 C.1       1 M9A         0.0986
     30 O         439.1450   -9.3670  224.9500 O.3       1 M9A        -0.2564
     31 F         437.1740   -5.2400  226.2660 F         1 M9A        -0.1859
     32 H1        441.0429  -10.8378  229.1170 H         1 M9A         0.0644
     33 H2        436.8942  -15.6186  224.2362 H         1 M9A         0.2259
     34 H3        440.1962  -10.5613  226.8591 H         1 M9A         0.0633
     35 H4        440.8949   -8.2130  223.2447 H         1 M9A         0.0522
     36 H5        440.5123   -7.9611  220.8183 H         1 M9A         0.0497
     37 H6        438.3994   -8.7051  219.8088 H         1 M9A         0.0502
     38 H7        436.6374   -9.7240  221.2084 H         1 M9A         0.0511
     39 H8        436.0077  -11.5249  222.5235 H         1 M9A         0.0637
     40 H9        435.0992  -10.0296  222.9302 H         1 M9A         0.0637
     41 H10       434.9587  -10.7998  225.2977 H         1 M9A         0.0643
     42 H11       434.1438  -11.9200  224.1541 H         1 M9A         0.0643
     43 H12       436.5315  -11.5701  226.7207 H         1 M9A         0.1177
     44 H13       437.9149  -13.3385  227.6101 H         1 M9A         0.0258
     45 H14       437.7282   -7.1085  224.5855 H         1 M9A         0.0534
     46 H15       438.4268   -5.5459  228.4938 H         1 M9A         0.0492
     47 H16       439.7342   -6.9060  230.1618 H         1 M9A         0.0729
@<TRIPOS>BOND
     1    4    1 ar 
     2    1   27 ar 
     3    1   29 1  
     4   18    2 1  
     5    2   19 1  
     6    2   22 am 
     7    3   16 1  
     8   17    3 1  
     9    7    4 ar 
    10    5   21 am 
    11   22    5 am 
    12   21    6 2  
    13    9    7 ar 
    14   22    8 2  
    15   10    9 ar 
    16    9   26 ar 
    17   10   23 ar 
    18   30   10 1  
    19   11   12 ar 
    20   16   11 ar 
    21   11   30 1  
    22   12   13 ar 
    23   14   13 ar 
    24   15   14 ar 
    25   16   15 ar 
    26   17   18 1  
    27   19   20 2  
    28   20   21 1  
    29   23   24 ar 
    30   24   25 ar 
    31   24   31 1  
    32   25   26 ar 
    33   26   27 ar 
    34   29   28 3  
    35    4   32 1  
    36    5   33 1  
    37    7   34 1  
    38   12   35 1  
    39   13   36 1  
    40   14   37 1  
    41   15   38 1  
    42   17   39 1  
    43   17   40 1  
    44   18   41 1  
    45   18   42 1  
    46   19   43 1  
    47   20   44 1  
    48   23   45 1  
    49   25   46 1  
    50   27   47 1  
@<TRIPOS>SUBSTRUCTURE
     1 M9A         1

