### 
### Created by X-TOOL on Mon Aug  2 16:15:42 2021
### 

@<TRIPOS>MOLECULE
6ohd_ligand
   50    53     1     0     0
SMALL
GAST_HUCK


@<TRIPOS>ATOM
      1 C4          2.4000    0.9400  -16.9510 C.ar      1 MKP        -0.0418
      2 C5          2.9390   -1.5790  -18.9430 C.ar      1 MKP        -0.0287
      3 C6          2.7160    0.4970  -20.0730 C.ar      1 MKP        -0.0157
      4 C7         -0.6940    3.0820  -11.7190 C.2       1 MKP         0.1105
      5 C8          3.4230    0.4520  -17.7240 C.ar      1 MKP        -0.0158
      6 C10         2.6950    1.5690  -15.7700 C.ar      1 MKP         0.0475
      7 C13         2.2190   -1.3720  -21.2020 C.ar      1 MKP         0.1690
      8 C15         1.8920   -3.5700  -21.7510 C.2       1 MKP         0.3178
      9 C17         5.8400    0.0610  -18.1370 C.3       1 MKP        -0.0282
     10 C20         0.2080   -0.9880  -23.4030 C.3       1 MKP        -0.0337
     11 C21         1.4300   -1.8670  -23.5060 C.3       1 MKP         0.0722
     12 C1          3.9870    1.7230  -15.3320 C.ar      1 MKP        -0.0491
     13 C11         4.7280    0.5920  -17.3070 C.ar      1 MKP        -0.0344
     14 C12         2.5260   -2.1540  -20.1180 C.ar      1 MKP         0.1195
     15 C14         0.9490    3.3500  -13.1580 C.2       1 MKP         0.1274
     16 C16         1.5720    2.0680  -14.9870 C.2       1 MKP         0.2236
     17 C18         2.5420   -1.1070  -24.1860 C.3       1 MKP        -0.0337
     18 C19         1.0880   -3.0890  -24.3220 C.3       1 MKP        -0.0337
     19 C2          5.0040    1.2280  -16.1170 C.ar      1 MKP        -0.0549
     20 C3          0.0260    2.3920  -12.6680 C.2       1 MKP        -0.0076
     21 C9          3.0360   -0.2090  -18.9370 C.ar      1 MKP        -0.0228
     22 N22         2.3020   -0.0410  -21.2230 N.ar      1 MKP        -0.2993
     23 N23         0.7990    4.5330  -12.5570 N.2       1 MKP        -0.1522
     24 N24         2.3220   -3.4960  -20.4510 N.am      1 MKP        -0.2121
     25 N25         1.8380   -2.2750  -22.1900 N.am      1 MKP        -0.1834
     26 N26         1.8810    3.0940  -14.1390 N.am      1 MKP        -0.2333
     27 O27         1.6170   -4.5790  -22.3830 O.2       1 MKP        -0.3913
     28 O28         0.4710    1.5610  -15.1370 O.2       1 MKP        -0.3782
     29 O29        -0.2370    4.3600  -11.6480 O.3       1 MKP        -0.1930
     30 H1          1.3702    0.8292  -17.2709 H         1 MKP         0.0647
     31 H2          3.1757   -2.1730  -18.0677 H         1 MKP         0.0557
     32 H3          2.8071    1.5764  -20.0316 H         1 MKP         0.0646
     33 H4         -1.5032    2.6685  -11.1190 H         1 MKP         0.1106
     34 H5          6.7994    0.2682  -17.6404 H         1 MKP         0.0404
     35 H6          5.8255    0.5469  -19.1237 H         1 MKP         0.0404
     36 H7          5.7185   -1.0252  -18.2613 H         1 MKP         0.0404
     37 H8         -0.1047   -0.6754  -24.4102 H         1 MKP         0.0260
     38 H9          0.4455   -0.0989  -22.8004 H         1 MKP         0.0260
     39 H10        -0.6077   -1.5488  -22.9234 H         1 MKP         0.0260
     40 H11         4.2007    2.2210  -14.3932 H         1 MKP         0.0643
     41 H12         3.4324   -1.7486  -24.2606 H         1 MKP         0.0260
     42 H13         2.7852   -0.2093  -23.5987 H         1 MKP         0.0260
     43 H14         2.2192   -0.8091  -25.1945 H         1 MKP         0.0260
     44 H15         0.2773   -3.6447  -23.8280 H         1 MKP         0.0260
     45 H16         1.9754   -3.7334  -24.4069 H         1 MKP         0.0260
     46 H17         0.7618   -2.7800  -25.3260 H         1 MKP         0.0260
     47 H18         6.0330    1.3401  -15.7950 H         1 MKP         0.0566
     48 H19        -0.0871    1.3523  -12.9716 H         1 MKP         0.0359
     49 H20         2.4661   -4.2751  -19.8408 H         1 MKP         0.2276
     50 H21         2.7256    3.6225  -14.2248 H         1 MKP         0.2200
@<TRIPOS>BOND
     1    1    5 ar 
     2    6    1 ar 
     3    2   14 ar 
     4   21    2 ar 
     5   21    3 ar 
     6    3   22 ar 
     7   20    4 2  
     8    4   29 1  
     9    5   13 ar 
    10    5   21 1  
    11    6   12 ar 
    12   16    6 1  
    13   14    7 ar 
    14   22    7 ar 
    15    7   25 1  
    16   24    8 am 
    17   25    8 am 
    18    8   27 2  
    19   13    9 1  
    20   11   10 1  
    21   11   17 1  
    22   11   18 1  
    23   25   11 1  
    24   12   19 ar 
    25   19   13 ar 
    26   14   24 1  
    27   15   20 1  
    28   15   23 2  
    29   26   15 1  
    30   16   26 am 
    31   16   28 2  
    32   23   29 1  
    33    1   30 1  
    34    2   31 1  
    35    3   32 1  
    36    4   33 1  
    37    9   34 1  
    38    9   35 1  
    39    9   36 1  
    40   10   37 1  
    41   10   38 1  
    42   10   39 1  
    43   12   40 1  
    44   17   41 1  
    45   17   42 1  
    46   17   43 1  
    47   18   44 1  
    48   18   45 1  
    49   18   46 1  
    50   19   47 1  
    51   20   48 1  
    52   24   49 1  
    53   26   50 1  
@<TRIPOS>SUBSTRUCTURE
     1 MKP         1

