### 
### Created by X-TOOL on Mon Aug  2 16:15:43 2021
### 

@<TRIPOS>MOLECULE
6oht_ligand
   72    75     1     0     0
SMALL
GAST_HUCK


@<TRIPOS>ATOM
      1 N         -20.6810    8.9470   24.3860 N.4       1 MKM         0.2365
      2 C1        -15.4870   10.1070   27.0470 C.3       1 MKM        -0.0261
      3 C10       -11.9630   10.7500   25.2790 C.3       1 MKM        -0.0326
      4 C11        -9.7140   10.4630   24.0880 C.3       1 MKM        -0.0257
      5 C12        -8.9690   10.8190   25.4080 C.3       1 MKM         0.0350
      6 C13        -9.7300   11.6840   26.2580 C.3       1 MKM        -0.0423
      7 C14       -11.2100   11.0450   26.5590 C.3       1 MKM        -0.0500
      8 C15        -8.6030    9.6390   23.2020 C.3       1 MKM        -0.0351
      9 C16        -7.2990   10.4940   23.3020 C.3       1 MKM         0.0229
     10 C17        -7.3970   11.2120   24.9010 C.2       1 MKM         0.1328
     11 C18       -12.9900    8.5270   26.0940 C.3       1 MKM        -0.0590
     12 C19        -8.7980    9.4990   26.2090 C.3       1 MKM        -0.0545
     13 C2        -16.2860   10.0490   25.8350 C.3       1 MKM         0.0592
     14 C20       -18.2740    8.9850   24.9710 C.3       1 MKM         0.0879
     15 C21       -19.5500    9.8510   24.7390 C.3       1 MKM        -0.0079
     16 C22       -21.7820    9.7420   23.7950 C.3       1 MKM        -0.0347
     17 C23       -22.9840    8.8470   23.4130 C.3       1 MKM        -0.0245
     18 C24       -21.1260    8.2490   25.6160 C.3       1 MKM        -0.0347
     19 C25       -20.9430    6.7230   25.4730 C.3       1 MKM        -0.0245
     20 C3        -15.5920    9.2090   24.7410 C.3       1 MKM        -0.0233
     21 C4        -14.2070    9.8310   24.3560 C.3       1 MKM        -0.0330
     22 C5        -13.3710    9.9580   25.6200 C.3       1 MKM        -0.0260
     23 C6        -14.0990   10.6630   26.7820 C.3       1 MKM        -0.0448
     24 C7        -13.4200    9.4630   22.9160 C.3       1 MKM        -0.0494
     25 C8        -11.9170    9.7790   22.8130 C.3       1 MKM        -0.0496
     26 C9        -11.1340    9.9210   24.2880 C.3       1 MKM        -0.0353
     27 O1        -17.5820    9.4550   26.1370 O.3       1 MKM        -0.3713
     28 O2         -6.5580   11.8220   25.4830 O.2       1 MKM        -0.3322
     29 H1        -20.3699    8.2651   23.7120 H         1 MKM         0.2034
     30 H2        -15.3910    9.0916   27.4590 H         1 MKM         0.0290
     31 H3        -15.9955   10.7528   27.7780 H         1 MKM         0.0290
     32 H4        -12.2080   11.7095   24.8002 H         1 MKM         0.0309
     33 H5         -9.8737   11.4083   23.5487 H         1 MKM         0.0294
     34 H6         -9.8515   12.6597   25.7647 H         1 MKM         0.0255
     35 H7         -9.1944   11.8182   27.2093 H         1 MKM         0.0255
     36 H8        -11.0861   10.1091   27.1236 H         1 MKM         0.0267
     37 H9        -11.7921   11.7605   27.1583 H         1 MKM         0.0267
     38 H10        -8.9296    9.5516   22.1553 H         1 MKM         0.0291
     39 H11        -8.4409    8.6348   23.6207 H         1 MKM         0.0291
     40 H12        -7.2781   11.2708   22.5234 H         1 MKM         0.0487
     41 H13        -6.4053    9.8592   23.2108 H         1 MKM         0.0487
     42 H14       -13.9045    7.9640   26.3322 H         1 MKM         0.0235
     43 H15       -12.3568    8.5943   26.9909 H         1 MKM         0.0235
     44 H16       -12.4392    8.0103   25.2942 H         1 MKM         0.0235
     45 H17        -8.2173    8.7804   25.6119 H         1 MKM         0.0219
     46 H18        -9.7880    9.0747   26.4323 H         1 MKM         0.0219
     47 H19        -8.2676    9.7071   27.1499 H         1 MKM         0.0219
     48 H20       -16.4338   11.0719   25.4585 H         1 MKM         0.0596
     49 H21       -17.6128    9.0644   24.0955 H         1 MKM         0.0613
     50 H22       -18.5654    7.9343   25.1163 H         1 MKM         0.0613
     51 H23       -19.7924   10.4067   25.6568 H         1 MKM         0.0837
     52 H24       -19.3720   10.5601   23.9171 H         1 MKM         0.0837
     53 H25       -21.4122   10.2489   22.8915 H         1 MKM         0.0812
     54 H26       -22.1138   10.4931   24.5270 H         1 MKM         0.0812
     55 H27       -23.7806    9.4688   22.9784 H         1 MKM         0.0281
     56 H28       -23.3640    8.3400   24.3121 H         1 MKM         0.0281
     57 H29       -22.6624    8.0958   22.6767 H         1 MKM         0.0281
     58 H30       -22.1889    8.4703   25.7925 H         1 MKM         0.0812
     59 H31       -20.5306    8.6058   26.4693 H         1 MKM         0.0812
     60 H32       -21.2786    6.2255   26.3949 H         1 MKM         0.0281
     61 H33       -19.8808    6.4957   25.2996 H         1 MKM         0.0281
     62 H34       -21.5392    6.3603   24.6227 H         1 MKM         0.0281
     63 H35       -16.2340    9.1784   23.8484 H         1 MKM         0.0293
     64 H36       -15.4363    8.1867   25.1159 H         1 MKM         0.0293
     65 H37       -14.4852   10.8755   24.1522 H         1 MKM         0.0307
     66 H38       -13.4958   10.5455   27.6943 H         1 MKM         0.0271
     67 H39       -14.1916   11.7317   26.5387 H         1 MKM         0.0271
     68 H40       -13.9271   10.0201   22.1144 H         1 MKM         0.0268
     69 H41       -13.5397    8.3831   22.7444 H         1 MKM         0.0268
     70 H42       -11.8020   10.7288   22.2702 H         1 MKM         0.0268
     71 H43       -11.4342    8.9707   22.2442 H         1 MKM         0.0268
     72 H44       -11.0397    8.9108   24.7128 H         1 MKM         0.0305
@<TRIPOS>BOND
     1   15    1 1  
     2    1   16 1  
     3    1   18 1  
     4   13    2 1  
     5    2   23 1  
     6    3    7 1  
     7   22    3 1  
     8    3   26 1  
     9    4    5 1  
    10    4    8 1  
    11   26    4 1  
    12    6    5 1  
    13    5   10 1  
    14    5   12 1  
    15    7    6 1  
    16    8    9 1  
    17    9   10 1  
    18   10   28 2  
    19   22   11 1  
    20   20   13 1  
    21   13   27 1  
    22   14   15 1  
    23   27   14 1  
    24   16   17 1  
    25   18   19 1  
    26   21   20 1  
    27   21   22 1  
    28   21   24 1  
    29   22   23 1  
    30   24   25 1  
    31   25   26 1  
    32    1   29 1  
    33    2   30 1  
    34    2   31 1  
    35    3   32 1  
    36    4   33 1  
    37    6   34 1  
    38    6   35 1  
    39    7   36 1  
    40    7   37 1  
    41    8   38 1  
    42    8   39 1  
    43    9   40 1  
    44    9   41 1  
    45   11   42 1  
    46   11   43 1  
    47   11   44 1  
    48   12   45 1  
    49   12   46 1  
    50   12   47 1  
    51   13   48 1  
    52   14   49 1  
    53   14   50 1  
    54   15   51 1  
    55   15   52 1  
    56   16   53 1  
    57   16   54 1  
    58   17   55 1  
    59   17   56 1  
    60   17   57 1  
    61   18   58 1  
    62   18   59 1  
    63   19   60 1  
    64   19   61 1  
    65   19   62 1  
    66   20   63 1  
    67   20   64 1  
    68   21   65 1  
    69   23   66 1  
    70   23   67 1  
    71   24   68 1  
    72   24   69 1  
    73   25   70 1  
    74   25   71 1  
    75   26   72 1  
@<TRIPOS>SUBSTRUCTURE
     1 MKM         1

