### 
### Created by X-TOOL on Mon Aug  2 16:15:43 2021
### 

@<TRIPOS>MOLECULE
6ohu_ligand
   58    60     1     0     0
SMALL
GAST_HUCK


@<TRIPOS>ATOM
      1 CA         -8.4940    7.7450   25.9090 C.3       1 CTX        -0.0541
      2 CB         -9.1070    8.8510   26.7670 C.3       1 CTX        -0.0187
      3 OL        -17.0700    9.4940   26.2670 O.3       1 CTX        -0.3130
      4 CA1       -17.3960   10.3430   25.1590 C.3       1 CTX         0.1101
      5 CB1       -18.9120   10.5090   25.0210 C.3       1 CTX        -0.0039
      6 C1        -15.7120    9.4340   26.2620 C.ar      1 CTX         0.0907
      7 C2        -14.9850   10.5070   26.7520 C.ar      1 CTX        -0.0340
      8 C3        -13.6110   10.4530   26.7400 C.ar      1 CTX        -0.0658
      9 C5        -13.6770    8.2570   25.7400 C.ar      1 CTX        -0.0658
     10 C6        -15.0570    8.3170   25.7560 C.ar      1 CTX        -0.0340
     11 C4        -12.9450    9.3230   26.2640 C.ar      1 CTX        -0.0367
     12 C7        -11.4680    9.3520   26.2310 C.2       1 CTX        -0.0180
     13 C8        -10.9840   10.2760   25.1830 C.ar      1 CTX        -0.0291
     14 C9        -11.0830    9.8840   23.8500 C.ar      1 CTX        -0.0594
     15 C10       -10.6600   10.7500   22.8710 C.ar      1 CTX        -0.0650
     16 C11       -10.1560   11.9970   23.2030 C.ar      1 CTX        -0.0652
     17 C12       -10.0670   12.4000   24.5220 C.ar      1 CTX        -0.0650
     18 C13       -10.4920   11.5470   25.5160 C.ar      1 CTX        -0.0594
     19 C14       -11.4340    5.2800   28.4750 C.ar      1 CTX        -0.0608
     20 C15       -11.4720    5.6280   29.8160 C.ar      1 CTX        -0.0615
     21 C16       -11.2320    6.9270   30.2200 C.ar      1 CTX        -0.0608
     22 C17       -10.9490    7.8890   29.2780 C.ar      1 CTX        -0.0530
     23 C18       -10.9250    7.5560   27.9230 C.ar      1 CTX        -0.0151
     24 C19       -11.1530    6.2330   27.5210 C.ar      1 CTX        -0.0530
     25 C20       -10.5840    8.5990   26.9470 C.2       1 CTX        -0.0259
     26 NI        -19.4070    9.7490   23.8670 N.4       1 CTX         0.2328
     27 C21       -20.8330   10.0800   23.7540 C.3       1 CTX        -0.0433
     28 C22       -19.3460    8.3300   24.2400 C.3       1 CTX        -0.0433
     29 H1         -7.4179    7.9339   25.7813 H         1 CTX         0.0255
     30 H2         -8.9833    7.7314   24.9239 H         1 CTX         0.0255
     31 H3         -8.6395    6.7736   26.4042 H         1 CTX         0.0255
     32 H4         -8.9600    9.8218   26.2711 H         1 CTX         0.0447
     33 H5         -8.6162    8.8640   27.7513 H         1 CTX         0.0447
     34 H6        -16.9976    9.8977   24.2354 H         1 CTX         0.0668
     35 H7        -16.9390   11.3311   25.3165 H         1 CTX         0.0668
     36 H8        -19.1488   11.5742   24.8820 H         1 CTX         0.0841
     37 H9        -19.4016   10.1406   25.9345 H         1 CTX         0.0841
     38 H10       -15.4947   11.3810   27.1412 H         1 CTX         0.0543
     39 H11       -13.0385   11.2982   27.1046 H         1 CTX         0.0573
     40 H12       -13.1696    7.3932   25.3259 H         1 CTX         0.0573
     41 H13       -15.6349    7.4849   25.3702 H         1 CTX         0.0543
     42 H14       -11.4869    8.9123   23.5896 H         1 CTX         0.0591
     43 H15       -10.7211   10.4550   21.8297 H         1 CTX         0.0608
     44 H16        -9.8266   12.6665   22.4167 H         1 CTX         0.0589
     45 H17        -9.6672   13.3763   24.7712 H         1 CTX         0.0608
     46 H18       -10.4465   11.8569   26.5538 H         1 CTX         0.0591
     47 H19       -11.6258    4.2558   28.1763 H         1 CTX         0.0618
     48 H20       -11.6932    4.8699   30.5585 H         1 CTX         0.0619
     49 H21       -11.2664    7.1866   31.2719 H         1 CTX         0.0618
     50 H22       -10.7444    8.9071   29.5888 H         1 CTX         0.0629
     51 H23       -11.1088    5.9629   26.4721 H         1 CTX         0.0629
     52 H24       -18.8934    9.9484   23.0229 H         1 CTX         0.2029
     53 H25       -21.2685    9.5388   22.9011 H         1 CTX         0.0777
     54 H26       -20.9468   11.1629   23.5979 H         1 CTX         0.0777
     55 H27       -21.3520    9.7862   24.6783 H         1 CTX         0.0777
     56 H28       -18.2947    8.0221   24.3401 H         1 CTX         0.0777
     57 H29       -19.8327    7.7248   23.4610 H         1 CTX         0.0777
     58 H30       -19.8647    8.1801   25.1984 H         1 CTX         0.0777
@<TRIPOS>BOND
     1    2    1 1  
     2   25    2 1  
     3    3    4 1  
     4    6    3 1  
     5    4    5 1  
     6    5   26 1  
     7    7    6 ar 
     8   10    6 ar 
     9    8    7 ar 
    10   11    8 ar 
    11    9   10 ar 
    12   11    9 ar 
    13   12   11 1  
    14   12   13 1  
    15   25   12 2  
    16   13   14 ar 
    17   13   18 ar 
    18   14   15 ar 
    19   15   16 ar 
    20   17   16 ar 
    21   18   17 ar 
    22   19   20 ar 
    23   24   19 ar 
    24   21   20 ar 
    25   22   21 ar 
    26   23   22 ar 
    27   23   24 ar 
    28   23   25 1  
    29   26   27 1  
    30   26   28 1  
    31    1   29 1  
    32    1   30 1  
    33    1   31 1  
    34    2   32 1  
    35    2   33 1  
    36    4   34 1  
    37    4   35 1  
    38    5   36 1  
    39    5   37 1  
    40    7   38 1  
    41    8   39 1  
    42    9   40 1  
    43   10   41 1  
    44   14   42 1  
    45   15   43 1  
    46   16   44 1  
    47   17   45 1  
    48   18   46 1  
    49   19   47 1  
    50   20   48 1  
    51   21   49 1  
    52   22   50 1  
    53   24   51 1  
    54   26   52 1  
    55   27   53 1  
    56   27   54 1  
    57   27   55 1  
    58   28   56 1  
    59   28   57 1  
    60   28   58 1  
@<TRIPOS>SUBSTRUCTURE
     1 CTX         1

