### 
### Created by X-TOOL on Mon Aug  2 16:15:43 2021
### 

@<TRIPOS>MOLECULE
6oi8_ligand
   52    57     1     0     0
SMALL
GAST_HUCK


@<TRIPOS>ATOM
      1 CAJ        34.4490  101.3020    0.8400 C.3       1 MQV         0.0422
      2 CAI        35.6130  100.7470    0.0330 C.3       1 MQV         0.0330
      3 CAH        36.8900  101.5780   -0.1280 C.3       1 MQV        -0.0137
      4 NAA        38.1130  100.8440   -0.4810 N.4       1 MQV         0.2212
      5 CAL        35.7670  101.6500   -1.1720 C.3       1 MQV         0.0330
      6 CAK        34.7920  102.7980   -1.0890 C.3       1 MQV         0.0422
      7 NAB        34.1460  102.6780    0.3030 N.pl3     1 MQV        -0.2847
      8 CAM        33.3580  103.4740    1.0670 C.ar      1 MQV         0.1276
      9 NAC        32.6570  102.8780    2.0610 N.ar      1 MQV        -0.2719
     10 C4         31.8410  103.5460    2.9000 C.ar      1 MQV         0.0909
     11 N3         31.1720  102.8800    3.8650 N.ar      1 MQV        -0.2569
     12 C2         30.3480  103.5160    4.7240 C.ar      1 MQV         0.1831
     13 NAG        29.7200  102.8090    5.6650 N.pl3     1 MQV        -0.3021
     14 N1         30.1650  104.8540    4.6340 N.ar      1 MQV        -0.2461
     15 C6         30.8400  105.5920    3.6380 C.ar      1 MQV         0.0320
     16 C5         31.6880  104.9240    2.7650 C.ar      1 MQV         0.0392
     17 CAR        32.3830  105.5930    1.7620 C.ar      1 MQV        -0.0230
     18 CAS        33.2190  104.8690    0.9050 C.ar      1 MQV         0.0413
     19 CAT        33.9190  105.5420   -0.0910 C.ar      1 MQV         0.0093
     20 CAU        35.2710  105.8280    0.1350 C.ar      1 MQV         0.0481
     21 CLE        36.0360  105.3580    1.6440 Cl        1 MQV        -0.0705
     22 CAV        36.0150  106.4880   -0.8430 C.ar      1 MQV        -0.0478
     23 CAW        35.4110  106.8580   -2.0380 C.ar      1 MQV        -0.0609
     24 CAX        34.0650  106.5730   -2.2650 C.ar      1 MQV        -0.0530
     25 CAY        33.3070  105.9090   -1.3020 C.ar      1 MQV        -0.0041
     26 CAZ        31.9560  105.6580   -1.5670 C.ar      1 MQV         0.0092
     27 CBA        31.5060  104.4200   -2.0150 C.ar      1 MQV        -0.0354
     28 CBB        30.1580  104.1910   -2.2790 C.ar      1 MQV        -0.0342
     29 CBC        29.2320  105.2060   -2.0970 C.ar      1 MQV         0.0105
     30 NAF        29.6670  106.4540   -1.6430 N.ar      1 MQV        -0.2967
     31 CBD        31.0280  106.6770   -1.3830 C.ar      1 MQV         0.0183
     32 H1         34.7243  101.3652    1.9031 H         1 MQV         0.0535
     33 H2         33.5689  100.6518    0.7272 H         1 MQV         0.0535
     34 H3         35.6461   99.6477    0.0133 H         1 MQV         0.0381
     35 H4         37.1136  102.4298    0.5311 H         1 MQV         0.0857
     36 H5         38.8823  101.4907   -0.5590 H         1 MQV         0.1997
     37 H6         37.9796  100.3728   -1.3620 H         1 MQV         0.1997
     38 H7         38.3162  100.1651    0.2358 H         1 MQV         0.1997
     39 H8         35.9141  101.2865   -2.1997 H         1 MQV         0.0381
     40 H9         34.0291  102.7140   -1.8769 H         1 MQV         0.0535
     41 H10        35.3179  103.7589   -1.1887 H         1 MQV         0.0535
     42 H11        29.8646  101.7911    5.7268 H         1 MQV         0.1847
     43 H12        29.0905  103.2811    6.3297 H         1 MQV         0.1847
     44 H13        30.6985  106.6636    3.5560 H         1 MQV         0.1001
     45 H14        32.2776  106.6656    1.6457 H         1 MQV         0.0794
     46 H15        37.0617  106.7116   -0.6710 H         1 MQV         0.0627
     47 H16        35.9891  107.3710   -2.7981 H         1 MQV         0.0610
     48 H17        33.6036  106.8708   -3.1996 H         1 MQV         0.0630
     49 H18        32.2195  103.6171   -2.1616 H         1 MQV         0.0738
     50 H19        29.8325  103.2175   -2.6274 H         1 MQV         0.0708
     51 H20        28.1821  105.0337   -2.3045 H         1 MQV         0.0817
     52 H21        31.3578  107.6498   -1.0366 H         1 MQV         0.0829
@<TRIPOS>BOND
     1    1    2 1  
     2    1    7 1  
     3    2    3 1  
     4    2    5 1  
     5    3    4 1  
     6    3    5 1  
     7    5    6 1  
     8    6    7 1  
     9    7    8 1  
    10    8    9 ar 
    11    8   18 ar 
    12    9   10 ar 
    13   10   11 ar 
    14   10   16 ar 
    15   11   12 ar 
    16   12   13 1  
    17   12   14 ar 
    18   14   15 ar 
    19   15   16 ar 
    20   16   17 ar 
    21   17   18 ar 
    22   18   19 1  
    23   19   20 ar 
    24   19   25 ar 
    25   20   21 1  
    26   20   22 ar 
    27   22   23 ar 
    28   23   24 ar 
    29   24   25 ar 
    30   25   26 1  
    31   26   27 ar 
    32   26   31 ar 
    33   27   28 ar 
    34   28   29 ar 
    35   29   30 ar 
    36   30   31 ar 
    37    1   32 1  
    38    1   33 1  
    39    2   34 1  
    40    3   35 1  
    41    4   36 1  
    42    4   37 1  
    43    4   38 1  
    44    5   39 1  
    45    6   40 1  
    46    6   41 1  
    47   13   42 1  
    48   13   43 1  
    49   15   44 1  
    50   17   45 1  
    51   22   46 1  
    52   23   47 1  
    53   24   48 1  
    54   27   49 1  
    55   28   50 1  
    56   29   51 1  
    57   31   52 1  
@<TRIPOS>SUBSTRUCTURE
     1 MQV         1

