### 
### Created by X-TOOL on Mon Aug  2 16:15:44 2021
### 

@<TRIPOS>MOLECULE
6oi9_ligand
   45    48     1     0     0
SMALL
GAST_HUCK


@<TRIPOS>ATOM
      1 C4         38.5970  131.6370   24.4300 C.ar      1 MQM         0.0908
      2 C5         39.2980  130.7520   25.2500 C.ar      1 MQM         0.0391
      3 C6         40.4340  131.2190   25.9040 C.ar      1 MQM         0.0320
      4 N1         40.8420  132.5550   25.7330 N.ar      1 MQM        -0.2461
      5 N3         39.0190  132.9190   24.2910 N.ar      1 MQM        -0.2570
      6 CLY        35.2780  128.7210   26.5320 Cl        1 MQM        -0.0707
      7 CAT        36.1350  127.4190   25.7150 C.ar      1 MQM         0.0470
      8 CAU        35.6050  126.1380   25.9000 C.ar      1 MQM        -0.0485
      9 CAV        36.1950  125.0360   25.3130 C.ar      1 MQM        -0.0620
     10 CAW        37.3170  125.2250   24.5130 C.ar      1 MQM        -0.0485
     11 CAX        37.8670  126.5020   24.3240 C.ar      1 MQM         0.0470
     12 CLZ        39.2780  126.6000   23.3270 Cl        1 MQM        -0.0707
     13 CAS        37.2740  127.6410   24.9130 C.ar      1 MQM         0.0134
     14 CAH        37.7340  128.9700   24.7370 C.ar      1 MQM         0.0402
     15 CAG        38.8640  129.4280   25.4100 C.ar      1 MQM        -0.0233
     16 C2         40.1230  133.3790   24.9370 C.ar      1 MQM         0.1830
     17 NAK        40.5150  134.6430   24.7980 N.pl3     1 MQM        -0.3021
     18 NAJ        37.4980  131.1900   23.7760 N.ar      1 MQM        -0.2721
     19 CAI        37.0390  129.9160   23.9070 C.ar      1 MQM         0.1272
     20 NAL        35.9380  129.6380   23.1810 N.pl3     1 MQM        -0.2853
     21 CAM        35.1520  130.6400   22.3890 C.3       1 MQM         0.0413
     22 CAP        35.3520  128.2980   22.8080 C.3       1 MQM         0.0341
     23 CAO        34.3810  128.5650   21.6310 C.3       1 MQM        -0.0224
     24 CAN        33.8660  129.8850   21.9770 C.3       1 MQM         0.0219
     25 CAQ        32.8820  129.6900   23.1790 C.3       1 MQM        -0.0305
     26 NAR        31.4650  129.6920   22.7820 N.4       1 MQM         0.2188
     27 H1         41.0037  130.5550   26.5440 H         1 MQM         0.1001
     28 H2         34.7197  126.0085   26.5120 H         1 MQM         0.0621
     29 H3         35.7914  124.0427   25.4727 H         1 MQM         0.0607
     30 H4         37.7745  124.3709   24.0270 H         1 MQM         0.0621
     31 H5         39.4116  128.7568   26.0617 H         1 MQM         0.0792
     32 H6         41.3533  134.9796   25.2928 H         1 MQM         0.1846
     33 H7         39.9801  135.2848   24.1956 H         1 MQM         0.1846
     34 H8         35.7154  130.9618   21.5007 H         1 MQM         0.0534
     35 H9         34.9071  131.5173   23.0057 H         1 MQM         0.0534
     36 H10        34.8075  127.8686   23.6619 H         1 MQM         0.0530
     37 H11        36.1487  127.6067   22.4960 H         1 MQM         0.0530
     38 H12        33.5763  127.8159   21.5953 H         1 MQM         0.0291
     39 H13        34.9112  128.5799   20.6674 H         1 MQM         0.0291
     40 H14        33.3584  130.3780   21.1348 H         1 MQM         0.0374
     41 H15        33.0436  130.5069   23.8977 H         1 MQM         0.0816
     42 H16        33.1074  128.7274   23.6612 H         1 MQM         0.0816
     43 H17        30.8873  129.5629   23.5979 H         1 MQM         0.1994
     44 H18        31.2977  128.9419   22.1298 H         1 MQM         0.1994
     45 H19        31.2393  130.5726   22.3465 H         1 MQM         0.1994
@<TRIPOS>BOND
     1    2    1 ar 
     2    1    5 ar 
     3    1   18 ar 
     4    2    3 ar 
     5   15    2 ar 
     6    3    4 ar 
     7    4   16 ar 
     8    5   16 ar 
     9    7    6 1  
    10    7    8 ar 
    11   13    7 ar 
    12    8    9 ar 
    13   10    9 ar 
    14   11   10 ar 
    15   11   12 1  
    16   13   11 ar 
    17   14   13 1  
    18   14   15 ar 
    19   14   19 ar 
    20   16   17 1  
    21   18   19 ar 
    22   19   20 1  
    23   20   21 1  
    24   20   22 1  
    25   21   24 1  
    26   22   23 1  
    27   23   24 1  
    28   24   25 1  
    29   25   26 1  
    30    3   27 1  
    31    8   28 1  
    32    9   29 1  
    33   10   30 1  
    34   15   31 1  
    35   17   32 1  
    36   17   33 1  
    37   21   34 1  
    38   21   35 1  
    39   22   36 1  
    40   22   37 1  
    41   23   38 1  
    42   23   39 1  
    43   24   40 1  
    44   25   41 1  
    45   25   42 1  
    46   26   43 1  
    47   26   44 1  
    48   26   45 1  
@<TRIPOS>SUBSTRUCTURE
     1 MQM         1

