### 
### Created by X-TOOL on Mon Aug  2 16:11:38 2021
### 

@<TRIPOS>MOLECULE
6oim_ligand
   73    77     1     0     0
SMALL
GAST_HUCK


@<TRIPOS>ATOM
      1 C21        -2.6100   -7.0640   -0.3710 C.3       1 MOV        -0.0390
      2 C20        -1.9850   -6.5260   -1.6670 C.3       1 MOV         0.0649
      3 C19        -2.5410   -5.1470   -2.0200 C.3       1 MOV         0.0577
      4 N6         -2.1280   -4.1450   -1.0110 N.am      1 MOV        -0.2689
      5 C23        -2.9190   -3.1270   -0.6910 C.2       1 MOV         0.1783
      6 O2         -2.5630   -2.3050    0.1540 O.2       1 MOV        -0.3969
      7 C24        -4.2770   -2.9590   -1.3690 C.3       1 MOV         0.0346
      8 C25        -5.3640   -2.1680   -0.6430 C.3       1 MOV        -0.0482
      9 C18        -0.8220   -4.2890   -0.3370 C.3       1 MOV         0.0552
     10 C17         0.1210   -5.1600   -1.1490 C.3       1 MOV         0.0570
     11 N2         -0.5160   -6.4570   -1.5220 N.pl3     1 MOV        -0.2715
     12 C7          0.2320   -7.6550   -1.5860 C.2       1 MOV         0.1334
     13 N3         -0.4850   -8.7940   -1.5410 N.2       1 MOV        -0.2464
     14 C8          0.0880  -10.0030   -1.5640 C.2       1 MOV         0.2770
     15 O1         -0.6060  -11.0170   -1.5250 O.2       1 MOV        -0.3864
     16 N4          1.4680  -10.1120   -1.6350 N.am      1 MOV        -0.1451
     17 C9          2.0470  -11.3780   -1.6480 C.ar      1 MOV         0.1334
     18 C13         2.3470  -11.9760   -2.8600 C.ar      1 MOV        -0.0019
     19 C22         2.0370  -11.2480   -4.1650 C.3       1 MOV        -0.0277
     20 C12         2.9240  -13.2400   -2.8570 C.ar      1 MOV        -0.0499
     21 C11         3.1780  -13.8590   -1.6380 C.ar      1 MOV        -0.0182
     22 N5          2.8820  -13.2670   -0.4920 N.ar      1 MOV        -0.3186
     23 C10         2.3200  -12.0470   -0.4540 C.ar      1 MOV         0.0534
     24 C14         2.0060  -11.4200    0.9130 C.3       1 MOV        -0.0013
     25 C16         0.9860  -12.2700    1.6830 C.3       1 MOV        -0.0524
     26 C15         3.3030  -11.2870    1.7110 C.3       1 MOV        -0.0524
     27 C2          2.2580   -8.9660   -1.6800 C.ar      1 MOV         0.1828
     28 N1          3.5950   -9.0860   -1.7440 N.ar      1 MOV        -0.2707
     29 C1          1.6420   -7.7170   -1.6560 C.ar      1 MOV         0.0931
     30 C5          2.4670   -6.5910   -1.7080 C.ar      1 MOV         0.0009
     31 C4          3.8540   -6.7420   -1.7820 C.ar      1 MOV         0.1570
     32 F1          4.6580   -5.6630   -1.8360 F         1 MOV        -0.1843
     33 C3          4.4080   -8.0240   -1.7950 C.ar      1 MOV         0.0747
     34 C6          5.7890   -8.2170   -1.8650 C.ar      1 MOV         0.0654
     35 C30         6.6350   -7.6600   -0.8950 C.ar      1 MOV         0.1388
     36 F2          6.1440   -6.9310    0.1290 F         1 MOV        -0.1819
     37 C29         8.0110   -7.8500   -0.9680 C.ar      1 MOV        -0.0349
     38 C28         8.5500   -8.6020   -2.0050 C.ar      1 MOV        -0.0692
     39 C27         7.7190   -9.1620   -2.9660 C.ar      1 MOV        -0.0325
     40 C26         6.3430   -8.9750   -2.9010 C.ar      1 MOV         0.1017
     41 O3          5.5560   -9.5360   -3.8560 O.3       1 MOV        -0.3292
     42 H1         -3.7031   -7.1134   -0.4841 H         1 MOV         0.0253
     43 H2         -2.3577   -6.3935    0.4637 H         1 MOV         0.0253
     44 H3         -2.2169   -8.0704   -0.1646 H         1 MOV         0.0253
     45 H4         -2.2275   -7.2194   -2.4858 H         1 MOV         0.0587
     46 H5         -3.6394   -5.1971   -2.0512 H         1 MOV         0.0546
     47 H6         -2.1596   -4.8450   -3.0066 H         1 MOV         0.0546
     48 H7         -4.6762   -3.9679   -1.5498 H         1 MOV         0.0500
     49 H8         -4.0990   -2.4572   -2.3315 H         1 MOV         0.0500
     50 H9         -6.2730   -2.1410   -1.2619 H         1 MOV         0.0254
     51 H10        -5.0122   -1.1414   -0.4631 H         1 MOV         0.0254
     52 H11        -5.5895   -2.6521    0.3186 H         1 MOV         0.0254
     53 H12        -0.9762   -4.7499    0.6498 H         1 MOV         0.0543
     54 H13        -0.3716   -3.2935   -0.2104 H         1 MOV         0.0543
     55 H14         1.0225   -5.3633   -0.5524 H         1 MOV         0.0554
     56 H15         0.4021   -4.6230   -2.0669 H         1 MOV         0.0554
     57 H16         2.3429  -11.8744   -5.0159 H         1 MOV         0.0391
     58 H17         2.5877  -10.2962   -4.1937 H         1 MOV         0.0391
     59 H18         0.9569  -11.0487   -4.2261 H         1 MOV         0.0391
     60 H19         3.1719  -13.7351   -3.7889 H         1 MOV         0.0557
     61 H20         3.6271  -14.8455   -1.6262 H         1 MOV         0.0672
     62 H21         1.5796  -10.4183    0.7553 H         1 MOV         0.0461
     63 H22         0.7782  -11.8012    2.6561 H         1 MOV         0.0254
     64 H23         1.3948  -13.2788    1.8419 H         1 MOV         0.0254
     65 H24         0.0540  -12.3392    1.1029 H         1 MOV         0.0254
     66 H25         4.0209  -10.6757    1.1446 H         1 MOV         0.0254
     67 H26         3.7298  -12.2856    1.8862 H         1 MOV         0.0254
     68 H27         3.0917  -10.8040    2.6764 H         1 MOV         0.0254
     69 H28         2.0306   -5.5989   -1.6909 H         1 MOV         0.0751
     70 H29         8.6608   -7.4129   -0.2185 H         1 MOV         0.0521
     71 H30         9.6220   -8.7517   -2.0637 H         1 MOV         0.0604
     72 H31         8.1456   -9.7485   -3.7717 H         1 MOV         0.0517
     73 H32         4.6468   -9.3233   -3.6807 H         1 MOV         0.2508
@<TRIPOS>BOND
     1    1    2 1  
     2    2    3 1  
     3    2   11 1  
     4    3    4 1  
     5    4    5 am 
     6    4    9 1  
     7    5    6 2  
     8    5    7 1  
     9    7    8 1  
    10    9   10 1  
    11   10   11 1  
    12   11   12 1  
    13   12   13 2  
    14   12   29 1  
    15   13   14 1  
    16   14   15 2  
    17   14   16 am 
    18   16   17 1  
    19   16   27 1  
    20   17   18 ar 
    21   17   23 ar 
    22   18   19 1  
    23   18   20 ar 
    24   20   21 ar 
    25   21   22 ar 
    26   22   23 ar 
    27   23   24 1  
    28   24   25 1  
    29   24   26 1  
    30   27   28 ar 
    31   27   29 ar 
    32   28   33 ar 
    33   29   30 ar 
    34   30   31 ar 
    35   31   32 1  
    36   31   33 ar 
    37   33   34 1  
    38   34   35 ar 
    39   34   40 ar 
    40   35   36 1  
    41   35   37 ar 
    42   37   38 ar 
    43   38   39 ar 
    44   39   40 ar 
    45   40   41 1  
    46    1   42 1  
    47    1   43 1  
    48    1   44 1  
    49    2   45 1  
    50    3   46 1  
    51    3   47 1  
    52    7   48 1  
    53    7   49 1  
    54    8   50 1  
    55    8   51 1  
    56    8   52 1  
    57    9   53 1  
    58    9   54 1  
    59   10   55 1  
    60   10   56 1  
    61   19   57 1  
    62   19   58 1  
    63   19   59 1  
    64   20   60 1  
    65   21   61 1  
    66   24   62 1  
    67   25   63 1  
    68   25   64 1  
    69   25   65 1  
    70   26   66 1  
    71   26   67 1  
    72   26   68 1  
    73   30   69 1  
    74   37   70 1  
    75   38   71 1  
    76   39   72 1  
    77   41   73 1  
@<TRIPOS>SUBSTRUCTURE
     1 MOV         1

