### 
### Created by X-TOOL on Mon Aug  2 16:15:44 2021
### 

@<TRIPOS>MOLECULE
6oin_ligand
   37    39     1     0     0
SMALL
GAST_HUCK


@<TRIPOS>ATOM
      1 C10        -5.1130   10.6220  -17.8550 C.2       1 MQJ         0.2224
      2 C11        -5.8910   11.7560  -18.2650 C.ar      1 MQJ         0.0848
      3 C12        -6.8680   13.2320  -20.1140 C.ar      1 MQJ        -0.0222
      4 C13        -6.1240   12.1400  -19.6650 C.ar      1 MQJ         0.1535
      5 C14        -6.4900   12.5650  -17.2720 C.ar      1 MQJ        -0.0436
      6 C15        -7.2420   13.6700  -17.7290 C.ar      1 MQJ        -0.0602
      7 C16        -7.4370   14.0240  -19.1190 C.ar      1 MQJ        -0.0593
      8 C21         0.1110    6.4990  -23.0140 C.ar      1 MQJ        -0.0540
      9 C22         0.6690    6.7070  -24.2800 C.ar      1 MQJ        -0.0612
     10 F20        -5.6080   11.3750  -20.6940 F         1 MQJ        -0.1773
     11 O19        -5.3990    9.8300  -16.9180 O.2       1 MQJ        -0.3853
     12 N09        -3.9370   10.4660  -18.6150 N.am      1 MQJ        -0.1892
     13 N08        -2.9990    9.4410  -18.3220 N.am      1 MQJ        -0.1448
     14 S07        -3.2160    7.9180  -19.2530 S.o2      1 MQJ         0.0870
     15 O17        -4.5920    7.5870  -19.6210 O.2       1 MQJ        -0.1486
     16 O18        -2.4900    6.8440  -18.5480 O.2       1 MQJ        -0.1486
     17 C06        -2.4270    8.0900  -20.8970 C.ar      1 MQJ         0.1106
     18 C01        -1.4040    7.1890  -21.2760 C.ar      1 MQJ        -0.0273
     19 C02        -0.8650    7.4020  -22.5700 C.ar      1 MQJ        -0.0160
     20 C23         0.1660    7.7050  -25.0980 C.ar      1 MQJ        -0.0612
     21 C24        -0.8800    8.5860  -24.7100 C.ar      1 MQJ        -0.0540
     22 C03        -1.3860    8.4220  -23.4020 C.ar      1 MQJ        -0.0178
     23 C04        -2.4250    9.2900  -22.9770 C.ar      1 MQJ        -0.0522
     24 C05        -2.9090    9.1110  -21.7050 C.ar      1 MQJ        -0.0344
     25 H1         -6.9949   13.4498  -21.1683 H         1 MQJ         0.0616
     26 H2         -6.3780   12.3486  -16.2157 H         1 MQJ         0.0659
     27 H3         -7.7088   14.3012  -16.9815 H         1 MQJ         0.0595
     28 H4         -8.0209   14.8981  -19.3836 H         1 MQJ         0.0642
     29 H5          0.4237    5.6654  -22.3956 H         1 MQJ         0.0624
     30 H6          1.4923    6.0890  -24.6196 H         1 MQJ         0.0618
     31 H7         -3.7593   11.0897  -19.3762 H         1 MQJ         0.2114
     32 H8         -2.2706    9.5577  -17.6469 H         1 MQJ         0.1977
     33 H9         -1.0578    6.3944  -20.6250 H         1 MQJ         0.0643
     34 H10         0.5930    7.8206  -26.0876 H         1 MQJ         0.0618
     35 H11        -1.2682    9.3428  -25.3820 H         1 MQJ         0.0624
     36 H12        -2.8195   10.0612  -23.6287 H         1 MQJ         0.0624
     37 H13        -3.6774    9.7753  -21.3265 H         1 MQJ         0.0637
@<TRIPOS>BOND
     1    1    2 1  
     2    1   11 2  
     3   12    1 am 
     4    2    4 ar 
     5    2    5 ar 
     6    4    3 ar 
     7    3    7 ar 
     8    4   10 1  
     9    5    6 ar 
    10    6    7 ar 
    11    8    9 ar 
    12   19    8 ar 
    13    9   20 ar 
    14   13   12 1  
    15   14   13 am 
    16   14   15 2  
    17   14   16 2  
    18   17   14 1  
    19   18   17 ar 
    20   17   24 ar 
    21   18   19 ar 
    22   19   22 ar 
    23   20   21 ar 
    24   21   22 ar 
    25   22   23 ar 
    26   23   24 ar 
    27    3   25 1  
    28    5   26 1  
    29    6   27 1  
    30    7   28 1  
    31    8   29 1  
    32    9   30 1  
    33   12   31 1  
    34   13   32 1  
    35   18   33 1  
    36   20   34 1  
    37   21   35 1  
    38   23   36 1  
    39   24   37 1  
@<TRIPOS>SUBSTRUCTURE
     1 MQJ         1

