### 
### Created by X-TOOL on Mon Aug  2 16:15:44 2021
### 

@<TRIPOS>MOLECULE
6oio_ligand
   41    43     1     0     0
SMALL
GAST_HUCK


@<TRIPOS>ATOM
      1 C10         5.1860   10.7850   17.8550 C.2       1 ML7         0.2232
      2 C11         6.0000   11.8630   18.1960 C.ar      1 ML7         0.0521
      3 C12         7.2620   13.8200   17.5460 C.ar      1 ML7        -0.0123
      4 C13         6.4580   12.7180   17.2150 C.ar      1 ML7        -0.0340
      5 C14         6.2020   12.1230   19.5910 C.ar      1 ML7        -0.0419
      6 C15         7.0240   13.2200   19.9350 C.ar      1 ML7        -0.0557
      7 C16         7.5760   14.0620   18.9300 C.ar      1 ML7        -0.0499
      8 C20         7.7490   14.7020   16.5400 C.ar      1 ML7        -0.0168
      9 C21         8.8020   16.5440   14.5500 C.ar      1 ML7        -0.0617
     10 C22         8.6470   15.1500   14.2570 C.ar      1 ML7        -0.0612
     11 C23         8.1460   14.2700   15.2690 C.ar      1 ML7        -0.0540
     12 C25         8.3750   16.9310   15.8320 C.ar      1 ML7        -0.0612
     13 C24         7.9330   16.0360   16.8380 C.ar      1 ML7        -0.0540
     14 O19         5.4200   10.0850   16.8960 O.2       1 ML7        -0.3829
     15 N09         4.1000   10.5810   18.6230 N.am      1 ML7        -0.1884
     16 N08         3.0830    9.4720   18.2430 N.am      1 ML7        -0.1447
     17 S07         3.2340    8.0140   19.2950 S.o2      1 ML7         0.0870
     18 O17         2.4190    6.9180   18.8180 O.2       1 ML7        -0.1486
     19 O18         4.6680    7.5900   19.6530 O.2       1 ML7        -0.1486
     20 C06         2.5830    8.4600   20.9640 C.ar      1 ML7         0.1101
     21 C01         3.2190    9.4630   21.7100 C.ar      1 ML7        -0.0350
     22 C02         2.7030    9.7000   23.0160 C.ar      1 ML7        -0.0599
     23 C03         1.5170    9.0470   23.3820 C.ar      1 ML7        -0.0616
     24 C04         0.8930    8.0890   22.5730 C.ar      1 ML7        -0.0599
     25 C05         1.4680    7.7670   21.3100 C.ar      1 ML7        -0.0350
     26 H1          6.1946   12.5372   16.1791 H         1 ML7         0.0677
     27 H2          5.7425   11.5028   20.3521 H         1 ML7         0.0668
     28 H3          7.2367   13.4225   20.9785 H         1 ML7         0.0629
     29 H4          8.2298   14.8818   19.2049 H         1 ML7         0.0658
     30 H5          9.2172   17.2470   13.8369 H         1 ML7         0.0617
     31 H6          8.9068   14.7651   13.2775 H         1 ML7         0.0618
     32 H7          8.0701   13.2134   15.0389 H         1 ML7         0.0623
     33 H8          8.3844   17.9890   16.0679 H         1 ML7         0.0618
     34 H9          7.7397   16.3995   17.8408 H         1 ML7         0.0623
     35 H10         3.9487   11.1425   19.4365 H         1 ML7         0.2116
     36 H11         2.4194    9.5560   17.4996 H         1 ML7         0.1977
     37 H12         4.0565   10.0263   21.3146 H         1 ML7         0.0637
     38 H13         3.2110   10.3643   23.7057 H         1 ML7         0.0618
     39 H14         1.0626    9.2950   24.3344 H         1 ML7         0.0618
     40 H15        -0.0156    7.5989   22.9036 H         1 ML7         0.0618
     41 H16         1.0394    7.0113   20.6618 H         1 ML7         0.0637
@<TRIPOS>BOND
     1    2    1 1  
     2    1   14 2  
     3    1   15 am 
     4    4    2 ar 
     5    2    5 ar 
     6    3    4 ar 
     7    3    7 ar 
     8    8    3 1  
     9    6    5 ar 
    10    7    6 ar 
    11   11    8 ar 
    12    8   13 ar 
    13   10    9 ar 
    14    9   12 ar 
    15   10   11 ar 
    16   12   13 ar 
    17   15   16 1  
    18   16   17 am 
    19   17   18 2  
    20   17   19 2  
    21   17   20 1  
    22   20   21 ar 
    23   20   25 ar 
    24   21   22 ar 
    25   22   23 ar 
    26   23   24 ar 
    27   24   25 ar 
    28    4   26 1  
    29    5   27 1  
    30    6   28 1  
    31    7   29 1  
    32    9   30 1  
    33   10   31 1  
    34   11   32 1  
    35   12   33 1  
    36   13   34 1  
    37   15   35 1  
    38   16   36 1  
    39   21   37 1  
    40   22   38 1  
    41   23   39 1  
    42   24   40 1  
    43   25   41 1  
@<TRIPOS>SUBSTRUCTURE
     1 ML7         1

