### 
### Created by X-TOOL on Mon Aug  2 16:15:44 2021
### 

@<TRIPOS>MOLECULE
6oip_ligand
   40    42     1     0     0
SMALL
GAST_HUCK


@<TRIPOS>ATOM
      1 C16         2.8920    8.8510   21.1570 C.ar      1 MLS         0.1106
      2 C17         1.8670    7.9760   21.5080 C.ar      1 MLS        -0.0273
      3 C18         1.2480    8.0720   22.7900 C.ar      1 MLS        -0.0160
      4 C19         1.6760    9.0200   23.6750 C.ar      1 MLS        -0.0178
      5 C20         1.0810    9.1230   24.9740 C.ar      1 MLS        -0.0540
      6 C21         0.0450    8.2570   25.3210 C.ar      1 MLS        -0.0612
      7 C22        -0.4050    7.2940   24.4070 C.ar      1 MLS        -0.0612
      8 C01         7.3420   14.3790   21.5490 C.3       1 MLS        -0.0294
      9 C02         7.1290   14.0480   20.1110 C.ar      1 MLS        -0.0064
     10 C03         6.3770   12.9390   19.8020 C.ar      1 MLS         0.1538
     11 F04         5.8580   12.2300   20.8030 F         1 MLS        -0.1830
     12 C05         6.1700   12.5880   18.4730 C.ar      1 MLS         0.0782
     13 C06         6.7190   13.3570   17.4600 C.ar      1 MLS        -0.0505
     14 C07         7.4780   14.4740   17.7750 C.ar      1 MLS        -0.0669
     15 C08         7.6970   14.8120   19.1050 C.ar      1 MLS        -0.0579
     16 C09         5.3230   11.4190   18.1050 C.2       1 MLS         0.2207
     17 O10         5.5650   10.7950   17.0860 O.2       1 MLS        -0.3854
     18 N11         4.2150   11.0930   18.9580 N.am      1 MLS        -0.1892
     19 N12         3.3580   10.0780   18.6930 N.am      1 MLS        -0.1448
     20 S13         3.6580    8.7370   19.5730 S.o2      1 MLS         0.0870
     21 O14         5.0620    8.5280   19.7830 O.2       1 MLS        -0.1486
     22 O15         3.0850    7.6080   18.9200 O.2       1 MLS        -0.1486
     23 C23         0.1870    7.1890   23.1470 C.ar      1 MLS        -0.0540
     24 C24         2.7330    9.9030   23.3080 C.ar      1 MLS        -0.0522
     25 C25         3.3330    9.8150   22.0520 C.ar      1 MLS        -0.0344
     26 H1          1.5383    7.2193   20.8048 H         1 MLS         0.0643
     27 H2          1.4327    9.8667   25.6799 H         1 MLS         0.0624
     28 H3         -0.4139    8.3285   26.3005 H         1 MLS         0.0618
     29 H4         -1.2159    6.6282   24.6797 H         1 MLS         0.0618
     30 H5          7.9587   15.2863   21.6289 H         1 MLS         0.0383
     31 H6          7.8548   13.5422   22.0458 H         1 MLS         0.0383
     32 H7          6.3697   14.5527   22.0332 H         1 MLS         0.0383
     33 H8          6.5556   13.0862   16.4232 H         1 MLS         0.0600
     34 H9          7.9003   15.0832   16.9841 H         1 MLS         0.0577
     35 H10         8.3101   15.6705   19.3542 H         1 MLS         0.0581
     36 H11         4.0697   11.6388   19.7833 H         1 MLS         0.2114
     37 H12         2.6163   10.1439   18.0255 H         1 MLS         0.1977
     38 H13        -0.1583    6.4399   22.4436 H         1 MLS         0.0624
     39 H14         3.0746   10.6518   24.0134 H         1 MLS         0.0624
     40 H15         4.1344   10.4918   21.7784 H         1 MLS         0.0637
@<TRIPOS>BOND
     1    1    2 ar 
     2   20    1 1  
     3    1   25 ar 
     4    2    3 ar 
     5    3    4 ar 
     6    3   23 ar 
     7    4    5 ar 
     8    4   24 ar 
     9    5    6 ar 
    10    7    6 ar 
    11   23    7 ar 
    12    9    8 1  
    13   10    9 ar 
    14    9   15 ar 
    15   10   11 1  
    16   12   10 ar 
    17   12   13 ar 
    18   16   12 1  
    19   13   14 ar 
    20   14   15 ar 
    21   16   17 2  
    22   18   16 am 
    23   19   18 1  
    24   19   20 am 
    25   20   21 2  
    26   20   22 2  
    27   24   25 ar 
    28    2   26 1  
    29    5   27 1  
    30    6   28 1  
    31    7   29 1  
    32    8   30 1  
    33    8   31 1  
    34    8   32 1  
    35   13   33 1  
    36   14   34 1  
    37   15   35 1  
    38   18   36 1  
    39   19   37 1  
    40   23   38 1  
    41   24   39 1  
    42   25   40 1  
@<TRIPOS>SUBSTRUCTURE
     1 MLS         1

