### 
### Created by X-TOOL on Mon Aug  2 16:15:45 2021
### 

@<TRIPOS>MOLECULE
6oiq_ligand
   41    43     1     0     0
SMALL
GAST_HUCK


@<TRIPOS>ATOM
      1 C10        -5.1880  -10.8180   17.9100 C.2       1 MLV         0.2225
      2 C11        -5.9960  -11.9260   18.2720 C.ar      1 MLV         0.0860
      3 C12        -7.3300  -13.8730   17.5620 C.ar      1 MLV         0.0224
      4 C13        -6.4850  -12.7690   17.3150 C.ar      1 MLV         0.1626
      5 C14        -6.2660  -12.1540   19.6740 C.ar      1 MLV        -0.0434
      6 C15        -7.1060  -13.2600   19.9120 C.ar      1 MLV        -0.0595
      7 C16        -7.6710  -14.1350   18.9370 C.ar      1 MLV        -0.0512
      8 C20        -7.7900  -14.7320   16.5300 C.ar      1 MLV        -0.0168
      9 C21        -8.6570  -16.5450   14.4860 C.ar      1 MLV        -0.0624
     10 C22        -8.1540  -17.0410   15.7080 C.ar      1 MLV        -0.0619
     11 C23        -7.7990  -16.1220   16.7220 C.ar      1 MLV        -0.0550
     12 C25        -8.6940  -15.1460   14.2840 C.ar      1 MLV        -0.0619
     13 C24        -8.2200  -14.2590   15.2770 C.ar      1 MLV        -0.0550
     14 F26        -6.1550  -12.4540   15.9310 F         1 MLV        -0.1752
     15 O19        -5.5140   -9.9880   17.0420 O.2       1 MLV        -0.3853
     16 N09        -4.0990  -10.6640   18.6860 N.am      1 MLV        -0.1891
     17 N08        -3.1730   -9.5880   18.3490 N.am      1 MLV        -0.1448
     18 S07        -3.3240   -8.1790   19.3780 S.o2      1 MLV         0.0869
     19 O17        -2.5470   -7.0880   18.8470 O.2       1 MLV        -0.1486
     20 O18        -4.7530   -7.7710   19.7310 O.2       1 MLV        -0.1486
     21 C06        -2.6260   -8.5570   21.0270 C.ar      1 MLV         0.1101
     22 C01        -3.2640   -9.5190   21.8020 C.ar      1 MLV        -0.0350
     23 C02        -2.7630   -9.7840   23.0830 C.ar      1 MLV        -0.0599
     24 C03        -1.5610   -9.1410   23.4120 C.ar      1 MLV        -0.0616
     25 C04        -0.9430   -8.1650   22.6130 C.ar      1 MLV        -0.0599
     26 C05        -1.4840   -7.8340   21.3460 C.ar      1 MLV        -0.0350
     27 H1         -5.8613  -11.5339   20.4657 H         1 MLV         0.0659
     28 H2         -7.3492  -13.4685   20.9476 H         1 MLV         0.0596
     29 H3         -8.3232  -14.9546   19.2163 H         1 MLV         0.0647
     30 H4         -9.0082  -17.2236   13.7171 H         1 MLV         0.0612
     31 H5         -8.0419  -18.1075   15.8662 H         1 MLV         0.0616
     32 H6         -7.5202  -16.5100   17.6950 H         1 MLV         0.0617
     33 H7         -9.0906  -14.7491   13.3565 H         1 MLV         0.0616
     34 H8         -8.1872  -13.1956   15.0694 H         1 MLV         0.0617
     35 H9         -3.9305  -11.2662   19.4664 H         1 MLV         0.2114
     36 H10        -2.5133   -9.6494   17.6000 H         1 MLV         0.1977
     37 H11        -4.1290  -10.0516   21.4237 H         1 MLV         0.0637
     38 H12        -3.2721  -10.4441   23.7759 H         1 MLV         0.0618
     39 H13        -1.0777   -9.4148   24.3429 H         1 MLV         0.0618
     40 H14        -0.0495   -7.6635   22.9668 H         1 MLV         0.0618
     41 H15        -1.0489   -7.0890   20.6896 H         1 MLV         0.0637
@<TRIPOS>BOND
     1    2    1 1  
     2    1   15 2  
     3    1   16 am 
     4    4    2 ar 
     5    2    5 ar 
     6    3    4 ar 
     7    3    7 ar 
     8    8    3 1  
     9    4   14 1  
    10    6    5 ar 
    11    7    6 ar 
    12   11    8 ar 
    13    8   13 ar 
    14   10    9 ar 
    15    9   12 ar 
    16   10   11 ar 
    17   12   13 ar 
    18   16   17 1  
    19   17   18 am 
    20   18   19 2  
    21   18   20 2  
    22   18   21 1  
    23   21   22 ar 
    24   21   26 ar 
    25   22   23 ar 
    26   23   24 ar 
    27   24   25 ar 
    28   25   26 ar 
    29    5   27 1  
    30    6   28 1  
    31    7   29 1  
    32    9   30 1  
    33   10   31 1  
    34   11   32 1  
    35   12   33 1  
    36   13   34 1  
    37   16   35 1  
    38   17   36 1  
    39   22   37 1  
    40   23   38 1  
    41   24   39 1  
    42   25   40 1  
    43   26   41 1  
@<TRIPOS>SUBSTRUCTURE
     1 MLV         1

