### 
### Created by X-TOOL on Mon Aug  2 16:15:45 2021
### 

@<TRIPOS>MOLECULE
6oir_ligand
   41    43     1     0     0
SMALL
GAST_HUCK


@<TRIPOS>ATOM
      1 CAK         8.3150   14.3220   15.3710 C.ar      1 MNJ        -0.0549
      2 CAG         8.7450   15.2090   14.3470 C.ar      1 MNJ        -0.0618
      3 CAE         8.6270   16.5960   14.5470 C.ar      1 MNJ        -0.0623
      4 CAH         8.0960   17.1300   15.7530 C.ar      1 MNJ        -0.0618
      5 CAL         7.7550   16.2210   16.7730 C.ar      1 MNJ        -0.0549
      6 CAV         7.8290   14.7710   16.6140 C.ar      1 MNJ        -0.0193
      7 CAW         7.3630   13.9110   17.6720 C.ar      1 MNJ        -0.0159
      8 CAQ         6.5320   12.8150   17.3520 C.ar      1 MNJ        -0.0353
      9 CAP         7.6540   14.1860   19.0470 C.ar      1 MNJ        -0.0512
     10 CAO         7.1300   13.3380   20.0640 C.ar      1 MNJ        -0.0213
     11 CAU         6.3180   12.2570   19.6850 C.ar      1 MNJ         0.1541
     12 FAD         5.7820   11.4190   20.6340 F         1 MNJ        -0.1767
     13 CAY         6.0200   11.9590   18.3250 C.ar      1 MNJ         0.0860
     14 CAT         5.1880   10.8410   17.9750 C.2       1 MNJ         0.2226
     15 OAA         5.4930   10.1000   17.0200 O.2       1 MNJ        -0.3852
     16 NAR         4.0340   10.6460   18.7260 N.am      1 MNJ        -0.1891
     17 NAS         3.1630    9.6980   18.3370 N.am      1 MNJ        -0.1448
     18 SAZ         3.3150    8.2070   19.3260 S.o2      1 MNJ         0.0869
     19 OAB         4.7470    7.8360   19.6790 O.2       1 MNJ        -0.1486
     20 OAC         2.6550    7.0550   18.6840 O.2       1 MNJ        -0.1486
     21 CAX         2.6050    8.5190   20.9780 C.ar      1 MNJ         0.1101
     22 CAM         3.2370    9.4760   21.7630 C.ar      1 MNJ        -0.0350
     23 CAI         2.6990    9.6700   23.0440 C.ar      1 MNJ        -0.0599
     24 CAF         1.5690    8.9490   23.4870 C.ar      1 MNJ        -0.0616
     25 CAJ         0.9630    7.9700   22.6700 C.ar      1 MNJ        -0.0599
     26 CAN         1.5150    7.7810   21.3960 C.ar      1 MNJ        -0.0350
     27 H1          8.3632   13.2548   15.1873 H         1 MNJ         0.0618
     28 H2          9.1588   14.8211   13.4232 H         1 MNJ         0.0616
     29 H3          8.9482   17.2733   13.7640 H         1 MNJ         0.0613
     30 H4          7.9587   18.1975   15.8825 H         1 MNJ         0.0616
     31 H5          7.4205   16.6177   17.7248 H         1 MNJ         0.0618
     32 H6          6.2836   12.6332   16.3126 H         1 MNJ         0.0668
     33 H7          8.2710   15.0367   19.3127 H         1 MNJ         0.0650
     34 H8          7.3533   13.5231   21.1085 H         1 MNJ         0.0618
     35 H9          3.8553   11.1998   19.5393 H         1 MNJ         0.2114
     36 H10         2.5100    9.8099   17.5879 H         1 MNJ         0.1977
     37 H11         4.0930   10.0380   21.4073 H         1 MNJ         0.0637
     38 H12         3.1617   10.3902   23.7091 H         1 MNJ         0.0618
     39 H13         1.1600    9.1503   24.4705 H         1 MNJ         0.0618
     40 H14         0.1118    7.3924   23.0118 H         1 MNJ         0.0618
     41 H15         1.0804    7.0452   20.7291 H         1 MNJ         0.0637
@<TRIPOS>BOND
     1    1    2 ar 
     2    1    6 ar 
     3    2    3 ar 
     4    3    4 ar 
     5    4    5 ar 
     6    5    6 ar 
     7    6    7 1  
     8    7    8 ar 
     9    7    9 ar 
    10    8   13 ar 
    11    9   10 ar 
    12   10   11 ar 
    13   11   12 1  
    14   11   13 ar 
    15   13   14 1  
    16   14   15 2  
    17   14   16 am 
    18   16   17 1  
    19   17   18 am 
    20   18   19 2  
    21   18   20 2  
    22   18   21 1  
    23   21   22 ar 
    24   21   26 ar 
    25   22   23 ar 
    26   23   24 ar 
    27   24   25 ar 
    28   25   26 ar 
    29    1   27 1  
    30    2   28 1  
    31    3   29 1  
    32    4   30 1  
    33    5   31 1  
    34    8   32 1  
    35    9   33 1  
    36   10   34 1  
    37   16   35 1  
    38   17   36 1  
    39   22   37 1  
    40   23   38 1  
    41   24   39 1  
    42   25   40 1  
    43   26   41 1  
@<TRIPOS>SUBSTRUCTURE
     1 MNJ         1

