### 
### Created by X-TOOL on Mon Aug  2 16:15:45 2021
### 

@<TRIPOS>MOLECULE
6oja_ligand
   20    19     1     0     0
SMALL
GAST_HUCK


@<TRIPOS>ATOM
      1 N          50.6110   -8.4570  -30.7950 N.4       1 MET         0.2327
      2 CA         50.0660   -9.3550  -31.8380 C.3       1 MET         0.0291
      3 C          50.5880  -10.7480  -31.6030 C.2       1 MET         0.0844
      4 O          49.8790  -11.7440  -31.7660 O.co2     1 MET        -0.5643
      5 CB         50.4760   -8.8930  -33.2190 C.3       1 MET         0.0114
      6 CG         49.8890   -9.7170  -34.3330 C.3       1 MET         0.0001
      7 SD         50.4590   -9.1320  -35.9550 S.3       1 MET        -0.1638
      8 CE         49.6810   -7.5250  -36.0590 C.3       1 MET        -0.0181
      9 OXT        51.7660  -10.8970  -31.2110 O.co2     1 MET        -0.5643
     10 H1         50.2669   -7.5213  -30.9440 H         1 MET         0.2010
     11 H2         51.6178   -8.4566  -30.8445 H         1 MET         0.2010
     12 H3         50.3194   -8.7815  -29.8863 H         1 MET         0.2010
     13 H4         48.9680   -9.3591  -31.7723 H         1 MET         0.1024
     14 H5         51.5725   -8.9436  -33.2906 H         1 MET         0.0347
     15 H6         50.1478   -7.8511  -33.3481 H         1 MET         0.0347
     16 H7         48.7921   -9.6465  -34.2916 H         1 MET         0.0379
     17 H8         50.1942  -10.7657  -34.2025 H         1 MET         0.0379
     18 H9         49.9485   -7.0493  -37.0141 H         1 MET         0.0340
     19 H10        50.0272   -6.8954  -35.2261 H         1 MET         0.0340
     20 H11        48.5888   -7.6419  -36.0009 H         1 MET         0.0340
@<TRIPOS>BOND
     1    1    2 1  
     2    2    3 1  
     3    2    5 1  
     4    3    4 ar 
     5    3    9 ar 
     6    5    6 1  
     7    6    7 1  
     8    7    8 1  
     9    1   10 1  
    10    1   11 1  
    11    1   12 1  
    12    2   13 1  
    13    5   14 1  
    14    5   15 1  
    15    6   16 1  
    16    6   17 1  
    17    8   18 1  
    18    8   19 1  
    19    8   20 1  
@<TRIPOS>SUBSTRUCTURE
     1 MET         1

