### 
### Created by X-TOOL on Mon Aug  2 16:15:45 2021
### 

@<TRIPOS>MOLECULE
6olx_ligand
   52    54     1     0     0
SMALL
GAST_HUCK


@<TRIPOS>ATOM
      1 C4          0.7520   10.2880   25.5870 C.ar      1 KFY         0.1543
      2 C5         -0.0510   10.9970   24.7570 C.ar      1 KFY         0.0921
      3 C6         -1.3650   11.1490   25.0990 C.ar      1 KFY         0.1251
      4 C8          1.9410   10.9360   23.9270 C.2       1 KFY         0.1361
      5 N1         -1.8120   10.6230   26.2440 N.ar      1 KFY        -0.2729
      6 N3          0.3380    9.7320   26.7440 N.ar      1 KFY        -0.2744
      7 CAA         4.9320    6.6070   23.6520 C.3       1 KFY        -0.0652
      8 CAF         4.7150    7.9420   24.3620 C.3       1 KFY        -0.0535
      9 CAG         3.3300    8.2030   24.9330 C.3       1 KFY        -0.0259
     10 CAK         3.1590    9.5530   25.6570 C.3       1 KFY         0.0604
     11 N9          1.9760   10.2420   25.0540 N.pl3     1 KFY        -0.2160
     12 C2         -0.9870    9.9150   27.1010 C.ar      1 KFY         0.0509
     13 N6         -2.2080   11.8160   24.3020 N.pl3     1 KFY        -0.3168
     14 N7          0.7060   11.3990   23.7100 N.2       1 KFY        -0.3061
     15 CAL         3.1420   11.1430   22.9870 C.3       1 KFY         0.0534
     16 CAS         4.2870   11.7800   23.6060 C.ar      1 KFY        -0.0506
     17 CAJ         5.5560   11.2490   23.3520 C.ar      1 KFY        -0.0477
     18 CAI         4.1700   12.9100   24.4350 C.ar      1 KFY        -0.0477
     19 CAU         5.3090   13.4970   24.9970 C.ar      1 KFY         0.1054
     20 OAP         5.2800   14.5920   25.8270 O.3       1 KFY        -0.3296
     21 CAB         4.0770   15.3450   25.7950 C.3       1 KFY         0.0563
     22 CAX         6.5590   12.9530   24.7150 C.ar      1 KFY         0.1399
     23 OAR         7.7320   13.4590   25.2550 O.3       1 KFY        -0.3338
     24 CAD         8.0180   14.8200   24.9360 C.3       1 KFY         0.0527
     25 CAV         6.6840   11.8420   23.9160 C.ar      1 KFY         0.1054
     26 OAQ         7.9740   11.4000   23.7170 O.3       1 KFY        -0.3296
     27 CAC         8.0950   10.3480   22.7450 C.3       1 KFY         0.0563
     28 H1          5.9691    6.5485   23.2901 H         1 KFY         0.0230
     29 H2          4.2413    6.5285   22.7995 H         1 KFY         0.0230
     30 H3          4.7420    5.7826   24.3550 H         1 KFY         0.0230
     31 H4          4.9317    8.7417   23.6385 H         1 KFY         0.0263
     32 H5          5.4325    7.9959   25.1940 H         1 KFY         0.0263
     33 H6          3.1018    7.4013   25.6508 H         1 KFY         0.0291
     34 H7          2.6085    8.1687   24.1034 H         1 KFY         0.0291
     35 H8          4.0607   10.1683   25.5217 H         1 KFY         0.0609
     36 H9          2.9880    9.3841   26.7304 H         1 KFY         0.0609
     37 H10        -1.3703    9.5125   28.0317 H         1 KFY         0.0978
     38 H11        -3.1962   11.9231   24.5721 H         1 KFY         0.1811
     39 H12        -1.8687   12.2223   23.4184 H         1 KFY         0.1811
     40 H13         2.8146   11.7693   22.1441 H         1 KFY         0.0663
     41 H14         3.4580   10.1586   22.6114 H         1 KFY         0.0663
     42 H15         5.6619   10.3769   22.7169 H         1 KFY         0.0371
     43 H16         3.1914   13.3288   24.6398 H         1 KFY         0.0371
     44 H17         4.1570   16.1935   26.4904 H         1 KFY         0.0572
     45 H18         3.2349   14.7037   26.0944 H         1 KFY         0.0572
     46 H19         3.9069   15.7213   24.7755 H         1 KFY         0.0572
     47 H20         8.9641   15.1171   25.4120 H         1 KFY         0.0565
     48 H21         7.2045   15.4619   25.3051 H         1 KFY         0.0565
     49 H22         8.1059   14.9303   23.8451 H         1 KFY         0.0565
     50 H23         9.1515   10.0571   22.6491 H         1 KFY         0.0572
     51 H24         7.7227   10.7026   21.7726 H         1 KFY         0.0572
     52 H25         7.5035    9.4792   23.0694 H         1 KFY         0.0572
@<TRIPOS>BOND
     1    1    2 ar 
     2    1    6 ar 
     3   11    1 1  
     4    2    3 ar 
     5   14    2 1  
     6    3    5 ar 
     7    3   13 1  
     8   11    4 1  
     9    4   14 2  
    10    4   15 1  
    11   12    5 ar 
    12    6   12 ar 
    13    8    7 1  
    14    9    8 1  
    15   10    9 1  
    16   10   11 1  
    17   15   16 1  
    18   16   17 ar 
    19   16   18 ar 
    20   17   25 ar 
    21   18   19 ar 
    22   19   20 1  
    23   19   22 ar 
    24   20   21 1  
    25   22   23 1  
    26   22   25 ar 
    27   23   24 1  
    28   25   26 1  
    29   26   27 1  
    30    7   28 1  
    31    7   29 1  
    32    7   30 1  
    33    8   31 1  
    34    8   32 1  
    35    9   33 1  
    36    9   34 1  
    37   10   35 1  
    38   10   36 1  
    39   12   37 1  
    40   13   38 1  
    41   13   39 1  
    42   15   40 1  
    43   15   41 1  
    44   17   42 1  
    45   18   43 1  
    46   21   44 1  
    47   21   45 1  
    48   21   46 1  
    49   24   47 1  
    50   24   48 1  
    51   24   49 1  
    52   27   50 1  
    53   27   51 1  
    54   27   52 1  
@<TRIPOS>SUBSTRUCTURE
     1 KFY         1

