### 
### Created by X-TOOL on Mon Aug  2 16:10:01 2021
### 

@<TRIPOS>MOLECULE
6omu_ligand
   61    64     1     0     0
SMALL
GAST_HUCK


@<TRIPOS>ATOM
      1 N1         20.0530    5.6360    0.7920 N.ar      1 MZJ        -0.2698
      2 N3         17.8130    4.9590    0.8230 N.ar      1 MZJ        -0.2700
      3 C4         17.7020    5.1220    2.1550 C.ar      1 MZJ         0.1193
      4 C5         18.8020    5.5650    2.8840 C.ar      1 MZJ         0.0624
      5 C6         20.0450    5.8440    2.1240 C.ar      1 MZJ         0.1218
      6 C10        23.2110    7.7060    2.3440 C.3       1 MZJ        -0.0169
      7 C15        22.4280    9.0120    2.5470 C.3       1 MZJ        -0.0278
      8 C17        18.7350    6.9830    4.9550 C.ar      1 MZJ        -0.0650
      9 C20        18.2090    4.7530    6.5330 C.ar      1 MZJ        -0.0298
     10 C21        18.3830    4.6220    5.1590 C.ar      1 MZJ        -0.0650
     11 C24        15.8940    7.1350    8.1780 C.ar      1 MZJ        -0.0284
     12 C26        14.9400    8.1350   10.0350 C.ar      1 MZJ        -0.0723
     13 C28        16.8640    7.2220   10.1940 C.ar      1 MZJ        -0.0284
     14 O30        25.6680   11.1950    0.1300 O.2       1 MZJ        -0.3969
     15 C29        24.5940   11.1910    0.7160 C.2       1 MZJ         0.1782
     16 C31        24.0090   12.4500    1.1680 C.3       1 MZJ         0.0346
     17 C32        24.3420   13.6020    0.3580 C.3       1 MZJ        -0.0482
     18 N13        23.8240   10.1080    0.8300 N.am      1 MZJ        -0.2732
     19 C12        24.1920    8.8230    0.2790 C.3       1 MZJ         0.0342
     20 C11        24.4150    7.8580    1.4200 C.3       1 MZJ        -0.0278
     21 C14        22.5220   10.1120    1.4880 C.3       1 MZJ         0.0342
     22 C9         22.3110    6.5870    1.8080 C.3       1 MZJ         0.0320
     23 N8         21.1910    6.2880    2.6890 N.pl3     1 MZJ        -0.3032
     24 N7         16.5210    4.8790    2.7630 N.pl3     1 MZJ        -0.3175
     25 C2         18.9530    5.2040    0.1700 C.ar      1 MZJ         0.0556
     26 C16        18.6560    5.7330    4.3660 C.ar      1 MZJ        -0.0277
     27 C19        18.2750    6.0070    7.1150 C.ar      1 MZJ         0.1148
     28 C18        18.5570    7.1150    6.3320 C.ar      1 MZJ        -0.0298
     29 O22        18.1020    6.1470    8.4730 O.3       1 MZJ        -0.2586
     30 C23        16.9290    6.8600    8.9810 C.ar      1 MZJ         0.1160
     31 C27        15.9260    7.8220   10.6580 C.ar      1 MZJ        -0.0697
     32 C25        14.7940    7.8350    8.8210 C.ar      1 MZJ        -0.0697
     33 H1         23.5858    7.3969    3.3309 H         1 MZJ         0.0322
     34 H2         22.7729    9.4492    3.4956 H         1 MZJ         0.0288
     35 H3         21.3658    8.7395    2.6336 H         1 MZJ         0.0288
     36 H4         18.9349    7.8580    4.3471 H         1 MZJ         0.0574
     37 H5         18.0227    3.8776    7.1446 H         1 MZJ         0.0550
     38 H6         18.3050    3.6429    4.7003 H         1 MZJ         0.0574
     39 H7         15.8773    6.8575    7.1303 H         1 MZJ         0.0552
     40 H8         14.1564    8.6914   10.5365 H         1 MZJ         0.0528
     41 H9         17.6939    6.9800   10.8480 H         1 MZJ         0.0552
     42 H10        24.3587   12.6407    2.1933 H         1 MZJ         0.0500
     43 H11        22.9148   12.3376    1.1687 H         1 MZJ         0.0500
     44 H12        23.8575   14.4966    0.7762 H         1 MZJ         0.0254
     45 H13        23.9888   13.4410   -0.6712 H         1 MZJ         0.0254
     46 H14        25.4328   13.7441    0.3534 H         1 MZJ         0.0254
     47 H15        25.1164    8.9223   -0.3089 H         1 MZJ         0.0522
     48 H16        23.3839    8.4517   -0.3683 H         1 MZJ         0.0522
     49 H17        24.6542    6.8710    0.9973 H         1 MZJ         0.0288
     50 H18        25.2664    8.2176    2.0165 H         1 MZJ         0.0288
     51 H19        22.3684   11.0881    1.9713 H         1 MZJ         0.0522
     52 H20        21.7389    9.9495    0.7328 H         1 MZJ         0.0522
     53 H21        22.9165    5.6764    1.6892 H         1 MZJ         0.0526
     54 H22        21.9147    6.8942    0.8289 H         1 MZJ         0.0526
     55 H23        21.2688    6.4105    3.7087 H         1 MZJ         0.1844
     56 H24        16.4312    5.0023    3.7816 H         1 MZJ         0.1808
     57 H25        15.7100    4.5704    2.2081 H         1 MZJ         0.1808
     58 H26        18.9860    5.0466   -0.9020 H         1 MZJ         0.1028
     59 H27        18.6399    8.0923    6.7935 H         1 MZJ         0.0550
     60 H28        15.9712    8.0990   11.7051 H         1 MZJ         0.0590
     61 H29        13.8892    8.0872    8.2798 H         1 MZJ         0.0590
@<TRIPOS>BOND
     1    5    1 ar 
     2    1   25 ar 
     3    3    2 ar 
     4    2   25 ar 
     5    4    3 ar 
     6    3   24 1  
     7    4    5 ar 
     8   26    4 1  
     9    5   23 1  
    10    6    7 1  
    11    6   20 1  
    12   22    6 1  
    13    7   21 1  
    14    8   26 ar 
    15   28    8 ar 
    16    9   10 ar 
    17   27    9 ar 
    18   10   26 ar 
    19   30   11 ar 
    20   11   32 ar 
    21   31   12 ar 
    22   32   12 ar 
    23   30   13 ar 
    24   13   31 ar 
    25   15   14 2  
    26   15   16 1  
    27   18   15 am 
    28   16   17 1  
    29   19   18 1  
    30   21   18 1  
    31   20   19 1  
    32   23   22 1  
    33   27   28 ar 
    34   29   27 1  
    35   29   30 1  
    36    6   33 1  
    37    7   34 1  
    38    7   35 1  
    39    8   36 1  
    40    9   37 1  
    41   10   38 1  
    42   11   39 1  
    43   12   40 1  
    44   13   41 1  
    45   16   42 1  
    46   16   43 1  
    47   17   44 1  
    48   17   45 1  
    49   17   46 1  
    50   19   47 1  
    51   19   48 1  
    52   20   49 1  
    53   20   50 1  
    54   21   51 1  
    55   21   52 1  
    56   22   53 1  
    57   22   54 1  
    58   23   55 1  
    59   24   56 1  
    60   24   57 1  
    61   25   58 1  
    62   28   59 1  
    63   31   60 1  
    64   32   61 1  
@<TRIPOS>SUBSTRUCTURE
     1 MZJ         1

