### 
### Created by X-TOOL on Mon Aug  2 16:15:46 2021
### 

@<TRIPOS>MOLECULE
6oos_ligand
   75    78     1     0     0
SMALL
GAST_HUCK


@<TRIPOS>ATOM
      1 N1         11.2490    5.9890   28.4730 N.pl3     1 MOL        -0.3369
      2 C2         10.2690    5.3360   29.3860 C.ar      1 MOL         0.0353
      3 C3         10.4430    4.0160   29.7120 C.ar      1 MOL        -0.0429
      4 C4          9.5550    3.4010   30.5510 C.ar      1 MOL        -0.0471
      5 C5          8.4840    4.1230   31.0680 C.ar      1 MOL         0.0949
      6 C6          8.2910    5.4300   30.7500 C.ar      1 MOL        -0.0471
      7 C7          9.1940    6.0580   29.8990 C.ar      1 MOL        -0.0429
      8 S8          7.2940    3.2700   32.1590 S.o2      1 MOL         0.0648
      9 O9          6.7450    4.1230   33.1850 O.2       1 MOL        -0.1518
     10 O10         7.9550    2.1330   32.8550 O.2       1 MOL        -0.1518
     11 N11         6.0360    2.7010   31.1300 N.am      1 MOL        -0.2327
     12 C12         5.2440    3.7450   30.4590 C.3       1 MOL         0.0319
     13 C13         3.7690    3.3500   30.3680 C.3       1 MOL        -0.0296
     14 C14         3.0270    4.3200   29.3810 C.3       1 MOL        -0.0612
     15 C15         3.0720    3.3420   31.7370 C.3       1 MOL        -0.0612
     16 C16         6.3600    1.3820   30.4090 C.3       1 MOL         0.0578
     17 C17         5.4440    0.2540   30.9760 C.3       1 MOL         0.0967
     18 O18         5.5570   -0.8660   30.1820 O.3       1 MOL        -0.3877
     19 C19         5.8390   -0.0870   32.4130 C.3       1 MOL         0.0807
     20 N20         4.8180   -0.9990   32.8840 N.am      1 MOL        -0.2550
     21 C21         3.8560   -0.7210   33.9280 C.2       1 MOL         0.3203
     22 O22         3.8200    0.3460   34.4950 O.2       1 MOL        -0.3775
     23 O23         3.0030   -1.8020   34.1800 O.3       1 MOL        -0.2578
     24 C24         2.2550   -1.7960   35.3750 C.3       1 MOL         0.1189
     25 C25         0.7480   -2.3810   34.9550 C.3       1 MOL         0.0815
     26 O26         0.9700   -3.7150   34.8430 O.3       1 MOL        -0.3480
     27 C27         2.0550   -4.0780   35.9080 C.3       1 MOL         0.1648
     28 O28         2.9520   -4.7830   35.3760 O.3       1 MOL        -0.3509
     29 C29         4.3540   -3.9940   35.5620 C.3       1 MOL         0.0512
     30 C30         4.1430   -2.9260   36.3090 C.3       1 MOL        -0.0191
     31 C31         2.6730   -2.6620   36.2960 C.3       1 MOL         0.0449
     32 C32         7.1440   -0.8560   32.5430 C.3       1 MOL         0.0064
     33 C33         7.6950   -0.3870   34.9570 C.ar      1 MOL        -0.0603
     34 C34         7.9500   -0.8030   36.2750 C.ar      1 MOL        -0.0686
     35 C35         7.9370   -2.1670   36.5970 C.ar      1 MOL        -0.0687
     36 C36         7.6660   -3.0990   35.6250 C.ar      1 MOL        -0.0686
     37 C37         7.4160   -2.6900   34.3090 C.ar      1 MOL        -0.0603
     38 C38         7.4250   -1.3190   33.9790 C.ar      1 MOL        -0.0408
     39 H1         12.0417    5.4492   28.0972 H         1 MOL         0.1719
     40 H2         11.1337    6.9802   28.2177 H         1 MOL         0.1719
     41 H3         11.2814    3.4615   29.3063 H         1 MOL         0.0515
     42 H4          9.6850    2.3569   30.8117 H         1 MOL         0.0602
     43 H5          7.4455    5.9751   31.1538 H         1 MOL         0.0602
     44 H6          9.0622    7.1016   29.6369 H         1 MOL         0.0515
     45 H7          5.6378    3.8964   29.4432 H         1 MOL         0.0480
     46 H8          5.3297    4.6819   31.0290 H         1 MOL         0.0480
     47 H9          3.7158    2.3305   29.9585 H         1 MOL         0.0311
     48 H10         1.9664    4.0358   29.3157 H         1 MOL         0.0233
     49 H11         3.4870    4.2512   28.3842 H         1 MOL         0.0233
     50 H12         3.1077    5.3525   29.7517 H         1 MOL         0.0233
     51 H13         3.6038    2.6585   32.4152 H         1 MOL         0.0233
     52 H14         2.0321    3.0040   31.6171 H         1 MOL         0.0233
     53 H15         3.0810    4.3578   32.1590 H         1 MOL         0.0233
     54 H16         7.4149    1.1195   30.5770 H         1 MOL         0.0504
     55 H17         6.1781    1.4972   29.3303 H         1 MOL         0.0504
     56 H18         4.4001    0.6005   30.9657 H         1 MOL         0.0634
     57 H19         5.2888   -0.6530   29.2959 H         1 MOL         0.2100
     58 H20         5.8809    0.8304   33.0185 H         1 MOL         0.0604
     59 H21         4.7740   -1.8989   32.4501 H         1 MOL         0.1873
     60 H22         2.2119   -0.7788   35.7914 H         1 MOL         0.0675
     61 H23         0.4078   -1.9534   34.0003 H         1 MOL         0.0590
     62 H24         0.0060   -2.1662   35.7382 H         1 MOL         0.0590
     63 H25         1.6202   -4.5914   36.7782 H         1 MOL         0.0913
     64 H26         4.7395   -3.6874   34.5785 H         1 MOL         0.0561
     65 H27         5.0861   -4.6511   36.0542 H         1 MOL         0.0561
     66 H28         4.6846   -2.0630   35.8944 H         1 MOL         0.0293
     67 H29         4.4833   -3.1126   37.3382 H         1 MOL         0.0293
     68 H30         2.3406   -2.3273   37.2897 H         1 MOL         0.0380
     69 H31         7.9686   -0.2053   32.2166 H         1 MOL         0.0449
     70 H32         7.0958   -1.7414   31.8921 H         1 MOL         0.0449
     71 H33         7.7108    0.6683   34.7097 H         1 MOL         0.0557
     72 H34         8.1571   -0.0675   37.0439 H         1 MOL         0.0599
     73 H35         8.1407   -2.4863   37.6127 H         1 MOL         0.0559
     74 H36         7.6456   -4.1531   35.8770 H         1 MOL         0.0599
     75 H37         7.2151   -3.4293   33.5421 H         1 MOL         0.0557
@<TRIPOS>BOND
     1    2    1 1  
     2    3    2 ar 
     3    7    2 ar 
     4    4    3 ar 
     5    5    4 ar 
     6    5    6 ar 
     7    8    5 1  
     8    6    7 ar 
     9    8    9 2  
    10    8   10 2  
    11   11    8 am 
    12   11   12 1  
    13   16   11 1  
    14   12   13 1  
    15   13   14 1  
    16   13   15 1  
    17   17   16 1  
    18   17   18 1  
    19   19   17 1  
    20   19   20 1  
    21   32   19 1  
    22   20   21 am 
    23   21   22 2  
    24   21   23 1  
    25   23   24 1  
    26   24   25 1  
    27   24   31 1  
    28   25   26 1  
    29   27   26 1  
    30   27   28 1  
    31   31   27 1  
    32   29   28 1  
    33   30   29 1  
    34   31   30 1  
    35   38   32 1  
    36   33   34 ar 
    37   33   38 ar 
    38   34   35 ar 
    39   35   36 ar 
    40   36   37 ar 
    41   37   38 ar 
    42    1   39 1  
    43    1   40 1  
    44    3   41 1  
    45    4   42 1  
    46    6   43 1  
    47    7   44 1  
    48   12   45 1  
    49   12   46 1  
    50   13   47 1  
    51   14   48 1  
    52   14   49 1  
    53   14   50 1  
    54   15   51 1  
    55   15   52 1  
    56   15   53 1  
    57   16   54 1  
    58   16   55 1  
    59   17   56 1  
    60   18   57 1  
    61   19   58 1  
    62   20   59 1  
    63   24   60 1  
    64   25   61 1  
    65   25   62 1  
    66   27   63 1  
    67   29   64 1  
    68   29   65 1  
    69   30   66 1  
    70   30   67 1  
    71   31   68 1  
    72   32   69 1  
    73   32   70 1  
    74   33   71 1  
    75   34   72 1  
    76   35   73 1  
    77   36   74 1  
    78   37   75 1  
@<TRIPOS>SUBSTRUCTURE
     1 MOL         1

