### 
### Created by X-TOOL on Mon Aug  2 16:15:46 2021
### 

@<TRIPOS>MOLECULE
6oot_ligand
   75    78     1     0     0
SMALL
GAST_HUCK


@<TRIPOS>ATOM
      1 N1         -8.3820  -16.4540   16.2270 N.pl3     1 MOL        -0.3369
      2 C2         -8.4470  -16.0950   14.7830 C.ar      1 MOL         0.0353
      3 C3         -7.2730  -15.8850   14.0970 C.ar      1 MOL        -0.0429
      4 C4         -7.3080  -15.5530   12.7650 C.ar      1 MOL        -0.0471
      5 C5         -8.5330  -15.4200   12.1110 C.ar      1 MOL         0.0949
      6 C6         -9.7020  -15.6330   12.7820 C.ar      1 MOL        -0.0471
      7 C7         -9.6670  -15.9700   14.1360 C.ar      1 MOL        -0.0429
      8 S8         -8.5290  -14.9830   10.3260 S.o2      1 MOL         0.0648
      9 O9         -9.7030  -14.2220    9.9420 O.2       1 MOL        -0.1518
     10 O10        -7.4620  -13.9990   10.0080 O.2       1 MOL        -0.1518
     11 N11        -8.3300  -16.4630    9.4370 N.am      1 MOL        -0.2327
     12 C12        -7.0980  -17.2150    9.7740 C.3       1 MOL         0.0319
     13 C13        -6.4250  -17.8510    8.5520 C.3       1 MOL        -0.0296
     14 C14        -5.1550  -18.6490    9.0180 C.3       1 MOL        -0.0612
     15 C15        -6.0750  -16.8070    7.4690 C.3       1 MOL        -0.0612
     16 C16        -9.6120  -17.2630    9.0960 C.3       1 MOL         0.0578
     17 C17        -9.9720  -17.1810    7.5760 C.3       1 MOL         0.0967
     18 O18       -11.0330  -18.0250    7.3050 O.3       1 MOL        -0.3877
     19 C19       -10.3590  -15.7570    7.1640 C.3       1 MOL         0.0807
     20 N20       -10.7130  -15.7450    5.7530 N.am      1 MOL        -0.2550
     21 C21        -9.8290  -15.1970    4.7110 C.2       1 MOL         0.3203
     22 O22        -8.8600  -14.5720    4.9970 O.2       1 MOL        -0.3775
     23 O23       -10.1780  -15.4430    3.3810 O.3       1 MOL        -0.2578
     24 C24        -9.5860  -14.6260    2.3880 C.3       1 MOL         0.1189
     25 C25        -8.9920  -15.6220    1.1920 C.3       1 MOL         0.0815
     26 O26       -10.0540  -15.9570    0.4400 O.3       1 MOL        -0.3480
     27 C27       -11.1790  -14.9010    0.7750 C.3       1 MOL         0.1648
     28 O28       -12.1090  -15.4070    1.4470 O.3       1 MOL        -0.3509
     29 C29       -12.6070  -14.2600    2.4990 C.3       1 MOL         0.0512
     30 C30       -11.6110  -13.4140    2.6650 C.3       1 MOL        -0.0191
     31 C31       -10.5010  -13.8740    1.7750 C.3       1 MOL         0.0449
     32 C32       -11.6060  -15.2640    7.8910 C.3       1 MOL         0.0064
     33 C33       -11.4870  -12.7970    7.4190 C.ar      1 MOL        -0.0603
     34 C34       -11.9710  -11.6270    6.8080 C.ar      1 MOL        -0.0686
     35 C35       -13.1200  -11.6770    6.0000 C.ar      1 MOL        -0.0687
     36 C36       -13.7730  -12.8740    5.8040 C.ar      1 MOL        -0.0686
     37 C37       -13.2930  -14.0410    6.4110 C.ar      1 MOL        -0.0603
     38 C38       -12.1390  -13.9910    7.2290 C.ar      1 MOL        -0.0408
     39 H1         -7.4687  -16.5434   16.6948 H         1 MOL         0.1719
     40 H2         -9.2503  -16.6128   16.7578 H         1 MOL         0.1719
     41 H3         -6.3215  -15.9815   14.6074 H         1 MOL         0.0515
     42 H4         -6.3836  -15.3942   12.2216 H         1 MOL         0.0602
     43 H5        -10.6514  -15.5411   12.2669 H         1 MOL         0.0602
     44 H6        -10.5903  -16.1334   14.6799 H         1 MOL         0.0515
     45 H7         -7.3590  -18.0134   10.4843 H         1 MOL         0.0480
     46 H8         -6.3843  -16.5235   10.2456 H         1 MOL         0.0480
     47 H9         -7.1335  -18.5651    8.1070 H         1 MOL         0.0311
     48 H10        -4.6688  -19.1072    8.1441 H         1 MOL         0.0233
     49 H11        -5.4556  -19.4363    9.7250 H         1 MOL         0.0233
     50 H12        -4.4511  -17.9625    9.5112 H         1 MOL         0.0233
     51 H13        -6.9870  -16.2701    7.1690 H         1 MOL         0.0233
     52 H14        -5.6448  -17.3163    6.5941 H         1 MOL         0.0233
     53 H15        -5.3440  -16.0909    7.8726 H         1 MOL         0.0233
     54 H16       -10.4499  -16.8559    9.6810 H         1 MOL         0.0504
     55 H17        -9.4541  -18.3175    9.3663 H         1 MOL         0.0504
     56 H18        -9.0972  -17.4964    6.9884 H         1 MOL         0.0634
     57 H19       -10.7910  -18.9169    7.5251 H         1 MOL         0.2100
     58 H20        -9.5146  -15.0797    7.3595 H         1 MOL         0.0604
     59 H21       -11.5960  -16.1259    5.4787 H         1 MOL         0.1873
     60 H22        -8.7938  -14.0025    2.8281 H         1 MOL         0.0675
     61 H23        -8.5347  -16.5203    1.6324 H         1 MOL         0.0590
     62 H24        -8.2445  -15.0899    0.5853 H         1 MOL         0.0590
     63 H25       -11.5583  -14.4202   -0.1388 H         1 MOL         0.0913
     64 H26       -12.8708  -14.7226    3.4615 H         1 MOL         0.0561
     65 H27       -13.4831  -13.7332    2.0929 H         1 MOL         0.0561
     66 H28       -11.2814  -13.4182    3.7144 H         1 MOL         0.0293
     67 H29       -11.9259  -12.3983    2.3836 H         1 MOL         0.0293
     68 H30       -10.0337  -13.0194    1.2639 H         1 MOL         0.0380
     69 H31       -11.3534  -15.0490    8.9398 H         1 MOL         0.0449
     70 H32       -12.3805  -16.0442    7.8529 H         1 MOL         0.0449
     71 H33       -10.5994  -12.7569    8.0400 H         1 MOL         0.0557
     72 H34       -11.4572  -10.6847    6.9603 H         1 MOL         0.0599
     73 H35       -13.4924  -10.7734    5.5310 H         1 MOL         0.0559
     74 H36       -14.6585  -12.9125    5.1799 H         1 MOL         0.0599
     75 H37       -13.8055  -14.9833    6.2543 H         1 MOL         0.0557
@<TRIPOS>BOND
     1    2    1 1  
     2    3    2 ar 
     3    7    2 ar 
     4    4    3 ar 
     5    5    4 ar 
     6    5    6 ar 
     7    8    5 1  
     8    6    7 ar 
     9    8    9 2  
    10    8   10 2  
    11   11    8 am 
    12   11   12 1  
    13   16   11 1  
    14   12   13 1  
    15   13   14 1  
    16   13   15 1  
    17   17   16 1  
    18   17   18 1  
    19   19   17 1  
    20   19   20 1  
    21   32   19 1  
    22   20   21 am 
    23   21   22 2  
    24   21   23 1  
    25   23   24 1  
    26   24   25 1  
    27   24   31 1  
    28   25   26 1  
    29   27   26 1  
    30   27   28 1  
    31   31   27 1  
    32   29   28 1  
    33   30   29 1  
    34   31   30 1  
    35   38   32 1  
    36   33   34 ar 
    37   33   38 ar 
    38   34   35 ar 
    39   35   36 ar 
    40   36   37 ar 
    41   37   38 ar 
    42    1   39 1  
    43    1   40 1  
    44    3   41 1  
    45    4   42 1  
    46    6   43 1  
    47    7   44 1  
    48   12   45 1  
    49   12   46 1  
    50   13   47 1  
    51   14   48 1  
    52   14   49 1  
    53   14   50 1  
    54   15   51 1  
    55   15   52 1  
    56   15   53 1  
    57   16   54 1  
    58   16   55 1  
    59   17   56 1  
    60   18   57 1  
    61   19   58 1  
    62   20   59 1  
    63   24   60 1  
    64   25   61 1  
    65   25   62 1  
    66   27   63 1  
    67   29   64 1  
    68   29   65 1  
    69   30   66 1  
    70   30   67 1  
    71   31   68 1  
    72   32   69 1  
    73   32   70 1  
    74   33   71 1  
    75   34   72 1  
    76   35   73 1  
    77   36   74 1  
    78   37   75 1  
@<TRIPOS>SUBSTRUCTURE
     1 MOL         1

