### 
### Created by X-TOOL on Mon Aug  2 16:15:46 2021
### 

@<TRIPOS>MOLECULE
6oou_ligand
   75    78     1     0     0
SMALL
GAST_HUCK


@<TRIPOS>ATOM
      1 N1         14.4120   -6.0540   12.6240 N.pl3     1 MOL        -0.3369
      2 C2         15.4060   -5.4130   13.5270 C.ar      1 MOL         0.0353
      3 C3         15.2880   -4.0790   13.8220 C.ar      1 MOL        -0.0429
      4 C4         16.1930   -3.4810   14.6600 C.ar      1 MOL        -0.0471
      5 C5         17.2310   -4.2310   15.2270 C.ar      1 MOL         0.0949
      6 C6         17.3540   -5.5540   14.9390 C.ar      1 MOL        -0.0471
      7 C7         16.4340   -6.1610   14.0840 C.ar      1 MOL        -0.0429
      8 S8         18.4370   -3.3780   16.3320 S.o2      1 MOL         0.0648
      9 O9         17.7740   -2.3230   17.0850 O.2       1 MOL        -0.1518
     10 O10        18.9590   -4.2630   17.4020 O.2       1 MOL        -0.1518
     11 N11        19.6780   -2.7280   15.3150 N.am      1 MOL        -0.2327
     12 C12        20.4130   -3.7110   14.5000 C.3       1 MOL         0.0319
     13 C13        21.9150   -3.4210   14.4210 C.3       1 MOL        -0.0296
     14 C14        22.6230   -4.4740   13.4990 C.3       1 MOL        -0.0612
     15 C15        22.5800   -3.3630   15.8070 C.3       1 MOL        -0.0612
     16 C16        19.3490   -1.3460   14.7100 C.3       1 MOL         0.0578
     17 C17        20.3000   -0.2450   15.2570 C.3       1 MOL         0.0967
     18 O18        20.1940    0.8750   14.4590 O.3       1 MOL        -0.3877
     19 C19        19.9360    0.1120   16.6910 C.3       1 MOL         0.0807
     20 N20        20.8940    1.1210   17.1340 N.am      1 MOL        -0.2550
     21 C21        21.9680    0.8450   18.0830 C.2       1 MOL         0.3203
     22 O22        22.0700   -0.2340   18.5890 O.2       1 MOL        -0.3775
     23 O23        22.8370    1.8920   18.3620 O.3       1 MOL        -0.2578
     24 C24        23.5560    1.8270   19.5730 C.3       1 MOL         0.1189
     25 C25        25.0810    2.4280   19.2300 C.3       1 MOL         0.0815
     26 O26        24.8840    3.7650   19.1670 O.3       1 MOL        -0.3480
     27 C27        23.6880    4.0650   20.1570 C.3       1 MOL         0.1648
     28 O28        22.7800    4.7040   19.5580 O.3       1 MOL        -0.3509
     29 C29        21.3780    3.9020   19.7730 C.3       1 MOL         0.0512
     30 C30        21.6160    2.8380   20.5010 C.3       1 MOL        -0.0191
     31 C31        23.0950    2.6360   20.5140 C.3       1 MOL         0.0449
     32 C32        18.5540    0.7340   16.8240 C.3       1 MOL         0.0064
     33 C33        17.9580    0.3270   19.2380 C.ar      1 MOL        -0.0603
     34 C34        17.6970    0.7820   20.5380 C.ar      1 MOL        -0.0686
     35 C35        17.7550    2.1520   20.8320 C.ar      1 MOL        -0.0687
     36 C36        18.0580    3.0500   19.8380 C.ar      1 MOL        -0.0686
     37 C37        18.3270    2.6020   18.5400 C.ar      1 MOL        -0.0603
     38 C38        18.2750    1.2250   18.2450 C.ar      1 MOL        -0.0408
     39 H1         13.6516   -5.4930   12.2141 H         1 MOL         0.1719
     40 H2         14.4843   -7.0587   12.4089 H         1 MOL         0.1719
     41 H3         14.4798   -3.4979   13.3929 H         1 MOL         0.0515
     42 H4         16.1050   -2.4242   14.8846 H         1 MOL         0.0602
     43 H5         18.1619   -6.1335   15.3710 H         1 MOL         0.0602
     44 H6         16.5219   -7.2168   13.8546 H         1 MOL         0.0515
     45 H7         20.0000   -3.6997   13.4806 H         1 MOL         0.0480
     46 H8         20.2716   -4.7083   14.9420 H         1 MOL         0.0480
     47 H9         22.0371   -2.4312   13.9570 H         1 MOL         0.0311
     48 H10        23.6998   -4.2543   13.4512 H         1 MOL         0.0233
     49 H11        22.1933   -4.4236   12.4877 H         1 MOL         0.0233
     50 H12        22.4726   -5.4825   13.9115 H         1 MOL         0.0233
     51 H13        22.0639   -2.6180   16.4304 H         1 MOL         0.0233
     52 H14        23.6367   -3.0786   15.6951 H         1 MOL         0.0233
     53 H15        22.5149   -4.3508   16.2866 H         1 MOL         0.0233
     54 H16        18.3121   -1.0817   14.9648 H         1 MOL         0.0504
     55 H17        19.4557   -1.3997   13.6165 H         1 MOL         0.0504
     56 H18        21.3354   -0.6155   15.2308 H         1 MOL         0.0634
     57 H19        20.4388    0.6523   13.5685 H         1 MOL         0.2100
     58 H20        19.9965   -0.7882   17.3202 H         1 MOL         0.0604
     59 H21        20.8100    2.0481   16.7687 H         1 MOL         0.1873
     60 H22        23.5904    0.7902   19.9389 H         1 MOL         0.0675
     61 H23        25.4507    2.0389   18.2698 H         1 MOL         0.0590
     62 H24        25.7936    2.1723   20.0280 H         1 MOL         0.0590
     63 H25        24.0296    4.6077   21.0507 H         1 MOL         0.0913
     64 H26        20.9694    3.6004   18.7973 H         1 MOL         0.0561
     65 H27        20.6546    4.5505   20.2889 H         1 MOL         0.0561
     66 H28        21.1194    1.9608   20.0606 H         1 MOL         0.0293
     67 H29        21.2474    2.9920   21.5259 H         1 MOL         0.0293
     68 H30        23.4212    2.2859   21.5044 H         1 MOL         0.0380
     69 H31        17.7991   -0.0196   16.5552 H         1 MOL         0.0449
     70 H32        18.4819    1.5876   16.1339 H         1 MOL         0.0449
     71 H33        17.9100   -0.7327   19.0150 H         1 MOL         0.0557
     72 H34        17.4494    0.0722   21.3190 H         1 MOL         0.0599
     73 H35        17.5614    2.5009   21.8399 H         1 MOL         0.0559
     74 H36        18.0889    4.1106   20.0600 H         1 MOL         0.0599
     75 H37        18.5754    3.3141   17.7614 H         1 MOL         0.0557
@<TRIPOS>BOND
     1    2    1 1  
     2    3    2 ar 
     3    7    2 ar 
     4    4    3 ar 
     5    5    4 ar 
     6    5    6 ar 
     7    8    5 1  
     8    6    7 ar 
     9    8    9 2  
    10    8   10 2  
    11   11    8 am 
    12   11   12 1  
    13   16   11 1  
    14   12   13 1  
    15   13   14 1  
    16   13   15 1  
    17   17   16 1  
    18   17   18 1  
    19   19   17 1  
    20   19   20 1  
    21   32   19 1  
    22   20   21 am 
    23   21   22 2  
    24   21   23 1  
    25   23   24 1  
    26   24   25 1  
    27   24   31 1  
    28   25   26 1  
    29   27   26 1  
    30   27   28 1  
    31   31   27 1  
    32   29   28 1  
    33   30   29 1  
    34   31   30 1  
    35   38   32 1  
    36   33   34 ar 
    37   33   38 ar 
    38   34   35 ar 
    39   35   36 ar 
    40   36   37 ar 
    41   37   38 ar 
    42    1   39 1  
    43    1   40 1  
    44    3   41 1  
    45    4   42 1  
    46    6   43 1  
    47    7   44 1  
    48   12   45 1  
    49   12   46 1  
    50   13   47 1  
    51   14   48 1  
    52   14   49 1  
    53   14   50 1  
    54   15   51 1  
    55   15   52 1  
    56   15   53 1  
    57   16   54 1  
    58   16   55 1  
    59   17   56 1  
    60   18   57 1  
    61   19   58 1  
    62   20   59 1  
    63   24   60 1  
    64   25   61 1  
    65   25   62 1  
    66   27   63 1  
    67   29   64 1  
    68   29   65 1  
    69   30   66 1  
    70   30   67 1  
    71   31   68 1  
    72   32   69 1  
    73   32   70 1  
    74   33   71 1  
    75   34   72 1  
    76   35   73 1  
    77   36   74 1  
    78   37   75 1  
@<TRIPOS>SUBSTRUCTURE
     1 MOL         1

