### 
### Created by X-TOOL on Mon Aug  2 16:15:46 2021
### 

@<TRIPOS>MOLECULE
6ooy_ligand
   38    40     1     0     0
SMALL
GAST_HUCK


@<TRIPOS>ATOM
      1 C1        -11.0590    1.8270  -19.9960 C.ar      1 A7M        -0.0188
      2 C2        -10.7980    2.8180  -19.1040 C.ar      1 A7M        -0.0630
      3 C3        -10.6050    4.1330  -19.5450 C.ar      1 A7M        -0.0594
      4 C4        -10.5980    4.4460  -20.9100 C.ar      1 A7M        -0.0741
      5 C5        -10.8100    3.4330  -21.8330 C.ar      1 A7M        -0.0735
      6 C6        -11.0260    2.1120  -21.3760 C.ar      1 A7M        -0.0482
      7 C7        -11.2550    0.3910  -19.5280 C.3       1 A7M         0.0870
      8 C9        -11.2840    0.9640  -22.3590 C.3       1 A7M        -0.0367
      9 N10       -12.1760    0.2780  -18.3990 N.pl3     1 A7M        -0.2202
     10 C12       -13.9510    0.3530  -17.1410 C.ar      1 A7M         0.0211
     11 C17       -15.2910    0.6090  -16.9090 C.ar      1 A7M        -0.0656
     12 C18       -16.1010    1.0980  -17.9220 C.ar      1 A7M        -0.0786
     13 C19       -15.5730    1.3710  -19.1730 C.ar      1 A7M        -0.0766
     14 C20       -14.2400    1.1180  -19.4350 C.ar      1 A7M        -0.0419
     15 O16       -10.5830   -1.1210  -15.5130 O.3       1 A7M        -0.3729
     16 C15       -10.5120   -0.6400  -16.8370 C.3       1 A7M         0.1264
     17 C14       -11.8800   -0.1700  -17.1790 C.2       1 A7M         0.1511
     18 C11       -13.4450    0.6160  -18.4100 C.ar      1 A7M         0.0831
     19 N13       -12.9680   -0.1490  -16.3660 N.2       1 A7M        -0.3159
     20 C21       -10.3540    5.2050  -18.5240 C.3       1 A7M        -0.0358
     21 H1        -10.7389    2.5897  -18.0460 H         1 A7M         0.0478
     22 H2        -10.4294    5.4647  -21.2401 H         1 A7M         0.0482
     23 H3        -10.8102    3.6515  -22.8948 H         1 A7M         0.0521
     24 H4        -10.2786   -0.0153  -19.2255 H         1 A7M         0.0750
     25 H5        -11.6541   -0.1992  -20.3660 H         1 A7M         0.0750
     26 H6        -11.4252    0.0273  -21.7999 H         1 A7M         0.0363
     27 H7        -10.4233    0.8606  -23.0361 H         1 A7M         0.0363
     28 H8        -12.1886    1.1804  -22.9462 H         1 A7M         0.0363
     29 H9        -15.7109    0.4255  -15.9266 H         1 A7M         0.0535
     30 H10       -17.1549    1.2679  -17.7338 H         1 A7M         0.0516
     31 H11       -16.2073    1.7843  -19.9488 H         1 A7M         0.0528
     32 H12       -13.8231    1.3066  -20.4177 H         1 A7M         0.0541
     33 H13       -11.2110   -1.8325  -15.4690 H         1 A7M         0.2139
     34 H14       -10.2033   -1.4454  -17.5197 H         1 A7M         0.0831
     35 H15        -9.7951    0.1916  -16.9031 H         1 A7M         0.0831
     36 H16       -10.3994    4.7685  -17.5153 H         1 A7M         0.0377
     37 H17       -11.1200    5.9887  -18.6192 H         1 A7M         0.0377
     38 H18        -9.3587    5.6431  -18.6894 H         1 A7M         0.0377
@<TRIPOS>BOND
     1    1    2 ar 
     2    1    6 ar 
     3    7    1 1  
     4    2    3 ar 
     5    3    4 ar 
     6    3   20 1  
     7    5    4 ar 
     8    6    5 ar 
     9    6    8 1  
    10    9    7 1  
    11   17    9 1  
    12    9   18 1  
    13   10   11 ar 
    14   18   10 ar 
    15   10   19 1  
    16   11   12 ar 
    17   13   12 ar 
    18   14   13 ar 
    19   18   14 ar 
    20   16   15 1  
    21   16   17 1  
    22   17   19 2  
    23    2   21 1  
    24    4   22 1  
    25    5   23 1  
    26    7   24 1  
    27    7   25 1  
    28    8   26 1  
    29    8   27 1  
    30    8   28 1  
    31   11   29 1  
    32   12   30 1  
    33   13   31 1  
    34   14   32 1  
    35   15   33 1  
    36   16   34 1  
    37   16   35 1  
    38   20   36 1  
    39   20   37 1  
    40   20   38 1  
@<TRIPOS>SUBSTRUCTURE
     1 A7M         1

