### 
### Created by X-TOOL on Mon Aug  2 16:15:46 2021
### 

@<TRIPOS>MOLECULE
6ooz_ligand
   47    50     1     0     0
SMALL
GAST_HUCK


@<TRIPOS>ATOM
      1 C7        -14.5480   -0.5320   19.7160 C.ar      1 A6Y        -0.0417
      2 C6        -15.9100   -0.7730   19.5620 C.ar      1 A6Y        -0.0765
      3 C11        -9.0160   -0.3970   16.8310 C.ar      1 A6Y        -0.0269
      4 C5        -16.5460   -0.5580   18.3430 C.ar      1 A6Y        -0.0785
      5 C4        -15.8320   -0.1010   17.2660 C.ar      1 A6Y        -0.0653
      6 C3        -14.4780    0.1490   17.3910 C.ar      1 A6Y         0.0219
      7 N2        -13.5220    0.6040   16.4400 N.2       1 A6Y        -0.3130
      8 C12        -8.3320   -1.6020   16.6240 C.ar      1 A6Y         0.0038
      9 C20       -10.0470   -2.3100   15.0840 C.ar      1 A6Y         0.0038
     10 C24       -11.4200    0.2250   19.3960 C.3       1 A6Y         0.0871
     11 C28       -11.1250   -2.7230   21.8800 C.ar      1 A6Y        -0.0735
     12 C26       -11.2490   -1.1760   20.0070 C.ar      1 A6Y        -0.0188
     13 C27       -11.3140   -1.4250   21.3880 C.ar      1 A6Y        -0.0482
     14 C29       -10.8760   -3.7800   21.0160 C.ar      1 A6Y        -0.0741
     15 C31       -10.9910   -2.2450   19.1480 C.ar      1 A6Y        -0.0630
     16 C32       -10.5480   -4.6840   18.6850 C.3       1 A6Y        -0.0358
     17 O22       -10.2610    2.1060   17.0880 O.3       1 A6Y        -0.3556
     18 C9        -11.0300    1.1310   16.3860 C.3       1 A6Y         0.1769
     19 C10       -10.2390   -0.1320   16.1580 C.ar      1 A6Y         0.0255
     20 N19        -8.8450   -2.5520   15.7580 N.ar      1 A6Y        -0.3061
     21 C21       -10.7490   -1.1110   15.2920 C.ar      1 A6Y        -0.0269
     22 C2        -12.3350    0.7570   17.1400 C.2       1 A6Y         0.1682
     23 N3        -12.5350    0.2440   18.4120 N.pl3     1 A6Y        -0.2183
     24 C8        -13.8390   -0.0730   18.6350 C.ar      1 A6Y         0.0835
     25 C25       -11.5640   -0.3150   22.3810 C.3       1 A6Y        -0.0367
     26 C30       -10.8100   -3.5460   19.6430 C.ar      1 A6Y        -0.0594
     27 H1        -14.0587   -0.7030   20.6681 H         1 A6Y         0.0542
     28 H2        -16.4856   -1.1345   20.4064 H         1 A6Y         0.0529
     29 H3         -8.6078    0.3411   17.5119 H         1 A6Y         0.0658
     30 H4        -17.6079   -0.7523   18.2451 H         1 A6Y         0.0516
     31 H5        -16.3286    0.0643   16.3167 H         1 A6Y         0.0536
     32 H6         -7.3992   -1.7907   17.1431 H         1 A6Y         0.0804
     33 H7        -10.4388   -3.0518   14.3975 H         1 A6Y         0.0804
     34 H8        -10.4874    0.5126   18.8886 H         1 A6Y         0.0750
     35 H9        -11.6370    0.9441   20.1996 H         1 A6Y         0.0750
     36 H10       -11.1738   -2.9037   22.9477 H         1 A6Y         0.0521
     37 H11       -10.7337   -4.7813   21.4061 H         1 A6Y         0.0482
     38 H12       -10.9293   -2.0677   18.0804 H         1 A6Y         0.0478
     39 H13       -10.4333   -5.6204   19.2507 H         1 A6Y         0.0377
     40 H14        -9.6265   -4.4823   18.1192 H         1 A6Y         0.0377
     41 H15       -11.3934   -4.7782   17.9875 H         1 A6Y         0.0377
     42 H16       -10.7846    2.8882   17.2164 H         1 A6Y         0.2178
     43 H17       -11.3023    1.5564   15.4088 H         1 A6Y         0.1053
     44 H18       -11.6897   -0.9413   14.7807 H         1 A6Y         0.0658
     45 H19       -11.5755   -0.7300   23.3996 H         1 A6Y         0.0363
     46 H20       -12.5340    0.1572   22.1666 H         1 A6Y         0.0363
     47 H21       -10.7646    0.4363   22.3002 H         1 A6Y         0.0363
@<TRIPOS>BOND
     1    1    2 ar 
     2   24    1 ar 
     3    4    2 ar 
     4    3    8 ar 
     5   19    3 ar 
     6    5    4 ar 
     7    6    5 ar 
     8    7    6 1  
     9    6   24 ar 
    10   22    7 2  
    11    8   20 ar 
    12    9   20 ar 
    13   21    9 ar 
    14   10   12 1  
    15   23   10 1  
    16   13   11 ar 
    17   11   14 ar 
    18   12   13 ar 
    19   12   15 ar 
    20   13   25 1  
    21   26   14 ar 
    22   15   26 ar 
    23   26   16 1  
    24   18   17 1  
    25   18   19 1  
    26   22   18 1  
    27   19   21 ar 
    28   22   23 1  
    29   23   24 1  
    30    1   27 1  
    31    2   28 1  
    32    3   29 1  
    33    4   30 1  
    34    5   31 1  
    35    8   32 1  
    36    9   33 1  
    37   10   34 1  
    38   10   35 1  
    39   11   36 1  
    40   14   37 1  
    41   15   38 1  
    42   16   39 1  
    43   16   40 1  
    44   16   41 1  
    45   17   42 1  
    46   18   43 1  
    47   21   44 1  
    48   25   45 1  
    49   25   46 1  
    50   25   47 1  
@<TRIPOS>SUBSTRUCTURE
     1 A6Y         1

