### 
### Created by X-TOOL on Mon Aug  2 16:15:47 2021
### 

@<TRIPOS>MOLECULE
6op0_ligand
   57    61     1     0     0
SMALL
GAST_HUCK


@<TRIPOS>ATOM
      1 O         -10.9990    1.8150   16.0150 O.3       1 A7A        -0.3558
      2 C19       -10.8090    0.9430   17.0870 C.3       1 A7A         0.1763
      3 C20       -10.1230   -0.2860   16.5690 C.ar      1 A7A         0.0253
      4 C24        -8.9510   -0.7490   17.1430 C.ar      1 A7A        -0.0270
      5 C23        -8.3810   -1.9460   16.6980 C.ar      1 A7A         0.0038
      6 N4         -8.9760   -2.6780   15.7180 N.ar      1 A7A        -0.3061
      7 C22       -10.1310   -2.2700   15.1620 C.ar      1 A7A         0.0038
      8 C21       -10.7260   -1.0670   15.5800 C.ar      1 A7A        -0.0270
      9 C8        -12.1200    0.4820   17.5720 C.2       1 A7A         0.1669
     10 N1        -13.2080    0.4230   16.7990 N.2       1 A7A        -0.3150
     11 C9        -14.1940   -0.1530   17.5320 C.ar      1 A7A         0.0188
     12 C14       -13.6820   -0.4770   18.7930 C.ar      1 A7A         0.0789
     13 N         -12.4050   -0.1110   18.7960 N.pl3     1 A7A        -0.2199
     14 C7        -11.4940   -0.2290   19.9570 C.3       1 A7A         0.0867
     15 C6        -11.1950   -1.6720   20.3470 C.ar      1 A7A        -0.0189
     16 C4        -11.1020   -1.9710   21.6790 C.ar      1 A7A        -0.0482
     17 C5        -11.3530   -0.9040   22.7150 C.3       1 A7A        -0.0367
     18 C3        -10.8340   -3.2530   22.0740 C.ar      1 A7A        -0.0735
     19 C2        -10.6300   -4.2500   21.1390 C.ar      1 A7A        -0.0741
     20 C25       -10.9490   -2.6670   19.3920 C.ar      1 A7A        -0.0630
     21 C1        -10.6660   -3.9580   19.8040 C.ar      1 A7A        -0.0594
     22 C         -10.3950   -5.0770   18.8120 C.3       1 A7A        -0.0358
     23 C13       -14.5010   -1.0750   19.7550 C.ar      1 A7A        -0.0422
     24 C12       -15.8450   -1.3690   19.4430 C.ar      1 A7A        -0.0492
     25 C11       -16.3440   -1.0340   18.1950 C.ar      1 A7A        -0.0770
     26 C10       -15.5230   -0.4460   17.2380 C.ar      1 A7A        -0.0681
     27 C15       -16.6760   -2.0810   20.3340 C.2       1 A7A        -0.0058
     28 C18       -16.3060   -3.1270   21.1830 C.2       1 A7A         0.0612
     29 N3        -17.4010   -3.4940   21.8500 N.pl3     1 A7A        -0.2071
     30 C17       -17.6650   -4.5280   22.8790 C.3       1 A7A         0.0610
     31 N2        -18.5060   -2.7250   21.4960 N.2       1 A7A        -0.2144
     32 C16       -18.0570   -1.8520   20.5410 C.2       1 A7A         0.0045
     33 H1        -11.4333    2.6023   16.3218 H         1 A7A         0.2177
     34 H2        -10.2299    1.4252   17.8883 H         1 A7A         0.1051
     35 H3         -8.4757   -0.1840   17.9367 H         1 A7A         0.0658
     36 H4         -7.4542   -2.2945   17.1392 H         1 A7A         0.0804
     37 H5        -10.6029   -2.8690   14.3916 H         1 A7A         0.0804
     38 H6        -11.6586   -0.7433   15.1321 H         1 A7A         0.0658
     39 H7        -11.9580    0.2757   20.8172 H         1 A7A         0.0750
     40 H8        -10.5452    0.2687   19.7079 H         1 A7A         0.0750
     41 H9        -11.2321   -1.3335   23.7204 H         1 A7A         0.0363
     42 H10       -12.3765   -0.5170   22.6023 H         1 A7A         0.0363
     43 H11       -10.6335   -0.0833   22.5780 H         1 A7A         0.0363
     44 H12       -10.7811   -3.4891   23.1307 H         1 A7A         0.0521
     45 H13       -10.4409   -5.2664   21.4651 H         1 A7A         0.0482
     46 H14       -10.9801   -2.4271   18.3353 H         1 A7A         0.0478
     47 H15       -10.1951   -6.0107   19.3581 H         1 A7A         0.0377
     48 H16        -9.5208   -4.8178   18.1967 H         1 A7A         0.0377
     49 H17       -11.2729   -5.2125   18.1633 H         1 A7A         0.0377
     50 H18       -14.1053   -1.3117   20.7361 H         1 A7A         0.0492
     51 H19       -17.3840   -1.2318   17.9618 H         1 A7A         0.0487
     52 H20       -15.9208   -0.2144   16.2566 H         1 A7A         0.0531
     53 H21       -15.3119   -3.5605   21.2815 H         1 A7A         0.1020
     54 H22       -18.7258   -4.4949   23.1683 H         1 A7A         0.0607
     55 H23       -17.0380   -4.3351   23.7620 H         1 A7A         0.0607
     56 H24       -17.4273   -5.5212   22.4703 H         1 A7A         0.0607
     57 H25       -18.6616   -1.1063   20.0269 H         1 A7A         0.0670
@<TRIPOS>BOND
     1    1    2 1  
     2    2    3 1  
     3    2    9 1  
     4    3    4 ar 
     5    3    8 ar 
     6    4    5 ar 
     7    5    6 ar 
     8    6    7 ar 
     9    7    8 ar 
    10    9   10 2  
    11    9   13 1  
    12   10   11 1  
    13   11   12 ar 
    14   11   26 ar 
    15   12   13 1  
    16   12   23 ar 
    17   13   14 1  
    18   14   15 1  
    19   15   16 ar 
    20   15   20 ar 
    21   16   17 1  
    22   16   18 ar 
    23   18   19 ar 
    24   19   21 ar 
    25   20   21 ar 
    26   21   22 1  
    27   23   24 ar 
    28   24   25 ar 
    29   24   27 1  
    30   25   26 ar 
    31   27   28 2  
    32   27   32 1  
    33   28   29 1  
    34   29   30 1  
    35   29   31 1  
    36   31   32 2  
    37    1   33 1  
    38    2   34 1  
    39    4   35 1  
    40    5   36 1  
    41    7   37 1  
    42    8   38 1  
    43   14   39 1  
    44   14   40 1  
    45   17   41 1  
    46   17   42 1  
    47   17   43 1  
    48   18   44 1  
    49   19   45 1  
    50   20   46 1  
    51   22   47 1  
    52   22   48 1  
    53   22   49 1  
    54   23   50 1  
    55   25   51 1  
    56   26   52 1  
    57   28   53 1  
    58   30   54 1  
    59   30   55 1  
    60   30   56 1  
    61   32   57 1  
@<TRIPOS>SUBSTRUCTURE
     1 A7A         1

