### 
### Created by X-TOOL on Mon Aug  2 16:15:47 2021
### 

@<TRIPOS>MOLECULE
6op9_ligand
   67    70     1     0     0
SMALL
GAST_HUCK


@<TRIPOS>ATOM
      1 CAA       -52.5580  -16.3930   13.3490 C.3       1 DB8         0.0581
      2 O02       -43.5090  -15.6330   12.9320 O.3       1 DB8        -0.3228
      3 CAC       -55.9110  -12.3080   14.4150 C.3       1 DB8        -0.0290
      4 NAD       -45.2170  -13.0730   10.0350 N.1       1 DB8        -0.3470
      5 CL1       -42.5190  -17.3270   10.8120 Cl        1 DB8        -0.0883
      6 CL2       -47.6290  -17.1700    8.9250 Cl        1 DB8        -0.0884
      7 CAG       -46.2440  -13.0370   10.5110 C.1       1 DB8         0.0848
      8 CAH       -47.8280  -11.7700   11.2840 C.ar      1 DB8         0.0167
      9 CAI       -45.2270  -17.1300   10.0000 C.ar      1 DB8        -0.0510
     10 CAJ       -45.7970  -15.5080   12.2040 C.ar      1 DB8        -0.0078
     11 CAK       -51.2030  -11.7780   12.8050 C.ar      1 DB8        -0.0186
     12 CAL       -50.6990  -14.5300   12.5300 C.ar      1 DB8        -0.0192
     13 CAM       -55.4490  -11.2870   13.3650 C.3       1 DB8         0.0154
     14 CAN       -53.9170  -11.2070   13.3770 C.3       1 DB8         0.0758
     15 CAO       -59.4780  -10.5040   18.3510 C.3       1 DB8        -0.0427
     16 CAP       -56.9320  -12.6050   16.5370 C.3       1 DB8         0.0094
     17 CAQ       -57.7590  -10.9100   15.0260 C.3       1 DB8         0.0094
     18 CAR       -57.7360  -11.9740   17.6750 C.3       1 DB8         0.0092
     19 CAS       -58.5440  -10.2490   16.1670 C.3       1 DB8         0.0092
     20 NAT       -49.0020  -11.3030   11.8340 N.ar      1 DB8        -0.3220
     21 NAU       -48.1770  -15.4030   11.3740 N.pl3     1 DB8        -0.2555
     22 OAV       -52.8770  -15.0320   13.5200 O.3       1 DB8        -0.3205
     23 OAW       -53.4000  -12.4500   13.7800 O.3       1 DB8        -0.3133
     24 CAX       -44.5180  -15.9730   12.0160 C.ar      1 DB8         0.0967
     25 CAY       -44.2260  -16.7870   10.9350 C.ar      1 DB8         0.0570
     26 CAZ       -46.5160  -16.6380   10.2100 C.ar      1 DB8         0.0530
     27 CBA       -47.6240  -13.1670   11.1530 C.ar      1 DB8         0.1345
     28 CBB       -46.7870  -15.8360   11.3000 C.ar      1 DB8         0.0731
     29 CBC       -51.9040  -14.1060   13.0800 C.ar      1 DB8         0.1307
     30 CBD       -52.1470  -12.7260   13.2140 C.ar      1 DB8         0.1315
     31 CBE       -48.5800  -14.0230   11.5770 C.ar      1 DB8         0.1193
     32 CBF       -49.9750  -12.2040   12.2490 C.ar      1 DB8         0.0210
     33 CBG       -49.7490  -13.5650   12.1230 C.ar      1 DB8         0.0290
     34 NBH       -56.5840  -11.6260   15.5170 N.4       1 DB8         0.2428
     35 NBI       -58.8820  -11.2000   17.2180 N.4       1 DB8         0.2405
     36 C01       -43.9140  -14.7900   13.9790 C.3       1 DB8         0.0595
     37 H1        -53.3846  -17.0134   13.7255 H         1 DB8         0.0575
     38 H2        -51.6398  -16.6274   13.9075 H         1 DB8         0.0575
     39 H3        -52.4005  -16.6013   12.2805 H         1 DB8         0.0575
     40 H4        -55.0369  -12.8514   14.8032 H         1 DB8         0.0815
     41 H5        -56.6077  -13.0199   13.9482 H         1 DB8         0.0815
     42 H6        -47.0655  -11.0739   10.9537 H         1 DB8         0.0842
     43 H7        -45.0010  -17.7566    9.1448 H         1 DB8         0.0576
     44 H8        -46.0281  -14.8849   13.0604 H         1 DB8         0.0462
     45 H9        -51.4125  -10.7200   12.9141 H         1 DB8         0.0495
     46 H10       -50.4906  -15.5875   12.4147 H         1 DB8         0.0544
     47 H11       -55.8706  -10.2991   13.6024 H         1 DB8         0.0343
     48 H12       -55.7928  -11.6027   12.3690 H         1 DB8         0.0343
     49 H13       -53.5934  -10.4265   14.0813 H         1 DB8         0.0617
     50 H14       -53.5519  -10.9647   12.3681 H         1 DB8         0.0617
     51 H15       -59.7288  -11.2312   19.1373 H         1 DB8         0.0778
     52 H16       -60.3925   -9.9874   18.0242 H         1 DB8         0.0778
     53 H17       -58.7627   -9.7681   18.7468 H         1 DB8         0.0778
     54 H18       -57.5327  -13.4026   16.0755 H         1 DB8         0.0868
     55 H19       -56.0071  -13.0345   16.9493 H         1 DB8         0.0868
     56 H20       -57.4321  -10.1312   14.3213 H         1 DB8         0.0868
     57 H21       -58.4177  -11.6215   14.5066 H         1 DB8         0.0868
     58 H22       -57.0705  -11.3078   18.2436 H         1 DB8         0.0868
     59 H23       -58.0988  -12.7780   18.3323 H         1 DB8         0.0868
     60 H24       -59.4734   -9.8245   15.7596 H         1 DB8         0.0868
     61 H25       -57.9319   -9.4439   16.5997 H         1 DB8         0.0868
     62 H26       -48.9142  -16.1157   11.2769 H         1 DB8         0.2218
     63 H27       -55.9500  -10.9542   15.9205 H         1 DB8         0.2038
     64 H28       -59.5619  -11.8434   16.8440 H         1 DB8         0.2035
     65 H29       -43.0566  -14.5845   14.6368 H         1 DB8         0.0578
     66 H30       -44.7107  -15.2805   14.5575 H         1 DB8         0.0578
     67 H31       -44.2919  -13.8444   13.5631 H         1 DB8         0.0578
@<TRIPOS>BOND
     1   22    1 1  
     2   24    2 1  
     3    2   36 1  
     4   13    3 1  
     5    3   34 1  
     6    7    4 3  
     7   25    5 1  
     8   26    6 1  
     9   27    7 1  
    10   20    8 ar 
    11    8   27 ar 
    12    9   25 ar 
    13   26    9 ar 
    14   10   24 ar 
    15   28   10 ar 
    16   30   11 ar 
    17   11   32 ar 
    18   29   12 ar 
    19   12   33 ar 
    20   14   13 1  
    21   23   14 1  
    22   35   15 1  
    23   16   18 1  
    24   34   16 1  
    25   17   19 1  
    26   34   17 1  
    27   18   35 1  
    28   19   35 1  
    29   32   20 ar 
    30   21   28 1  
    31   31   21 1  
    32   29   22 1  
    33   30   23 1  
    34   24   25 ar 
    35   28   26 ar 
    36   27   31 ar 
    37   29   30 ar 
    38   31   33 ar 
    39   32   33 ar 
    40    1   37 1  
    41    1   38 1  
    42    1   39 1  
    43    3   40 1  
    44    3   41 1  
    45    8   42 1  
    46    9   43 1  
    47   10   44 1  
    48   11   45 1  
    49   12   46 1  
    50   13   47 1  
    51   13   48 1  
    52   14   49 1  
    53   14   50 1  
    54   15   51 1  
    55   15   52 1  
    56   15   53 1  
    57   16   54 1  
    58   16   55 1  
    59   17   56 1  
    60   17   57 1  
    61   18   58 1  
    62   18   59 1  
    63   19   60 1  
    64   19   61 1  
    65   21   62 1  
    66   34   63 1  
    67   35   64 1  
    68   36   65 1  
    69   36   66 1  
    70   36   67 1  
@<TRIPOS>SUBSTRUCTURE
     1 DB8         1

