### 
### Created by X-TOOL on Mon Aug  2 16:15:47 2021
### 

@<TRIPOS>MOLECULE
6oqb_ligand
   80    85     1     0     0
SMALL
GAST_HUCK


@<TRIPOS>ATOM
      1 C01        -0.6660    1.8310  103.9650 C.3       1 N0J        -0.0635
      2 C02         0.2060    3.0620  103.9160 C.3       1 N0J        -0.0313
      3 C03         1.2920    2.9350  102.8050 C.3       1 N0J         0.1014
      4 C04         2.4680    3.8350  103.2610 C.3       1 N0J        -0.0220
      5 C05         3.4360    3.1110  104.1710 C.3       1 N0J        -0.0346
      6 C06         4.3520    2.2160  103.4080 C.2       1 N0J        -0.0962
      7 C07         5.6040    2.0300  103.7950 C.2       1 N0J        -0.0703
      8 C08         6.4620    0.9780  103.1670 C.3       1 N0J         0.0757
      9 O09         6.8670    0.1500  104.2760 O.3       1 N0J        -0.3826
     10 C10         7.6860    1.5200  102.4400 C.3       1 N0J        -0.0037
     11 C11         8.4270    2.7350  103.0270 C.3       1 N0J        -0.0457
     12 C12         8.6260    3.2680  101.5820 C.3       1 N0J        -0.0475
     13 C13         7.4500    2.3610  101.1570 C.3       1 N0J        -0.0150
     14 C14         7.5950    1.5060   99.9010 C.3       1 N0J         0.0270
     15 N15         7.3210    2.2450   98.6190 N.pl3     1 N0J        -0.3196
     16 C16         8.3830    3.1370   98.1670 C.3       1 N0J         0.0061
     17 C17         8.7960    2.7640   96.7260 C.3       1 N0J         0.0035
     18 C18         9.4260    1.3460   96.6910 C.3       1 N0J        -0.0684
     19 C19        10.8630    1.3850   97.2100 C.3       1 N0J        -0.0460
     20 C20        11.6860    2.1820   96.2030 C.3       1 N0J        -0.0047
     21 C21        11.1040    3.5350   95.9510 C.ar      1 N0J        -0.0167
     22 C22        11.9530    4.5010   95.4460 C.ar      1 N0J        -0.0155
     23 C23        11.4630    5.7770   95.1930 C.ar      1 N0J         0.0648
     24 CL24       12.5610    6.9940   94.5730 Cl        1 N0J        -0.0445
     25 C25        10.1530    6.1130   95.4050 C.ar      1 N0J        -0.0253
     26 C26         9.3010    5.1350   95.9290 C.ar      1 N0J        -0.0456
     27 C27         9.7610    3.8250   96.1900 C.ar      1 N0J        -0.0424
     28 C28         7.5300    2.7040   95.8610 C.3       1 N0J         0.0499
     29 O29         6.6140    3.7610   96.2420 O.3       1 N0J        -0.3293
     30 C30         5.6740    3.3800   97.1730 C.ar      1 N0J         0.1136
     31 C31         4.3510    3.7860   96.8920 C.ar      1 N0J        -0.0378
     32 C32         3.3280    3.4610   97.7640 C.ar      1 N0J        -0.0636
     33 C33         3.6320    2.7050   98.8870 C.ar      1 N0J         0.0281
     34 C34         4.9070    2.2900   99.1830 C.ar      1 N0J        -0.0327
     35 C35         5.9870    2.6250   98.3270 C.ar      1 N0J         0.0759
     36 C36         2.6050    2.3150   99.8550 C.2       1 N0J         0.2134
     37 O37         2.4530    1.2060  100.3370 O.2       1 N0J        -0.3882
     38 N38         1.8050    3.3900  100.2380 N.am      1 N0J        -0.1592
     39 S39         0.5630    3.3020  101.2980 S.o2      1 N0J         0.0639
     40 O40        -0.2830    2.2670  100.8690 O.2       1 N0J        -0.1505
     41 O41         0.0750    4.6520  101.3590 O.2       1 N0J        -0.1505
     42 H1         -1.4214    1.9481  104.7560 H         1 N0J         0.0230
     43 H2         -0.0441    0.9494  104.1795 H         1 N0J         0.0230
     44 H3         -1.1680    1.6984  102.9953 H         1 N0J         0.0230
     45 H4          0.7013    3.1907  104.8897 H         1 N0J         0.0282
     46 H5         -0.4227    3.9397  103.7055 H         1 N0J         0.0282
     47 H6          1.6560    1.8982  102.7542 H         1 N0J         0.0560
     48 H7          2.0593    4.7024  103.8001 H         1 N0J         0.0304
     49 H8          3.0132    4.1805  102.3703 H         1 N0J         0.0304
     50 H9          2.8639    2.5055  104.8893 H         1 N0J         0.0389
     51 H10         4.0369    3.8547  104.7149 H         1 N0J         0.0389
     52 H11         3.9851    1.7070  102.5179 H         1 N0J         0.0451
     53 H12         6.0172    2.6547  104.5855 H         1 N0J         0.0475
     54 H13         5.8644    0.3945  102.4512 H         1 N0J         0.0721
     55 H14         6.0967   -0.2177  104.6931 H         1 N0J         0.2126
     56 H15         8.3567    0.6653  102.2679 H         1 N0J         0.0349
     57 H16         9.3612    2.4869  103.5520 H         1 N0J         0.0270
     58 H17         7.8066    3.3794  103.6672 H         1 N0J         0.0270
     59 H18         9.5931    3.0086  101.1266 H         1 N0J         0.0269
     60 H19         8.4410    4.3456  101.4611 H         1 N0J         0.0269
     61 H20         6.4867    2.8908  101.1199 H         1 N0J         0.0324
     62 H21         6.8895    0.6650   99.9723 H         1 N0J         0.0512
     63 H22         8.6241    1.1192   99.8634 H         1 N0J         0.0512
     64 H23         9.2522    3.0384   98.8338 H         1 N0J         0.0404
     65 H24         8.0216    4.1757   98.1867 H         1 N0J         0.0404
     66 H25         9.4253    0.9751   95.6554 H         1 N0J         0.0166
     67 H26         8.8313    0.6701   97.3230 H         1 N0J         0.0166
     68 H27        11.2603    0.3629   97.2962 H         1 N0J         0.0288
     69 H28        10.8948    1.8750   98.1943 H         1 N0J         0.0288
     70 H29        11.7198    1.6275   95.2536 H         1 N0J         0.0503
     71 H30        12.7071    2.3018   96.5942 H         1 N0J         0.0503
     72 H31        12.9926    4.2658   95.2487 H         1 N0J         0.0639
     73 H32         9.7869    7.1068   95.1738 H         1 N0J         0.0653
     74 H33         8.2678    5.3872   96.1388 H         1 N0J         0.0815
     75 H34         7.0394    1.7296   96.0017 H         1 N0J         0.0505
     76 H35         7.8062    2.8261   94.8033 H         1 N0J         0.0505
     77 H36         4.1373    4.3524   95.9928 H         1 N0J         0.0517
     78 H37         2.3124    3.7892   97.5746 H         1 N0J         0.0533
     79 H38         5.0891    1.7030  100.0760 H         1 N0J         0.0528
     80 H39         2.0057    4.2825   99.8341 H         1 N0J         0.2131
@<TRIPOS>BOND
     1    1    2 1  
     2    2    3 1  
     3    3    4 1  
     4    3   39 1  
     5    4    5 1  
     6    5    6 1  
     7    6    7 2  
     8    7    8 1  
     9    8    9 1  
    10    8   10 1  
    11   10   11 1  
    12   10   13 1  
    13   11   12 1  
    14   12   13 1  
    15   13   14 1  
    16   14   15 1  
    17   15   16 1  
    18   15   35 1  
    19   16   17 1  
    20   17   18 1  
    21   17   27 1  
    22   17   28 1  
    23   18   19 1  
    24   19   20 1  
    25   20   21 1  
    26   21   22 ar 
    27   21   27 ar 
    28   22   23 ar 
    29   23   24 1  
    30   23   25 ar 
    31   25   26 ar 
    32   26   27 ar 
    33   28   29 1  
    34   29   30 1  
    35   30   31 ar 
    36   30   35 ar 
    37   31   32 ar 
    38   32   33 ar 
    39   33   34 ar 
    40   33   36 1  
    41   34   35 ar 
    42   36   37 2  
    43   36   38 am 
    44   38   39 am 
    45   39   40 2  
    46   39   41 2  
    47    1   42 1  
    48    1   43 1  
    49    1   44 1  
    50    2   45 1  
    51    2   46 1  
    52    3   47 1  
    53    4   48 1  
    54    4   49 1  
    55    5   50 1  
    56    5   51 1  
    57    6   52 1  
    58    7   53 1  
    59    8   54 1  
    60    9   55 1  
    61   10   56 1  
    62   11   57 1  
    63   11   58 1  
    64   12   59 1  
    65   12   60 1  
    66   13   61 1  
    67   14   62 1  
    68   14   63 1  
    69   16   64 1  
    70   16   65 1  
    71   18   66 1  
    72   18   67 1  
    73   19   68 1  
    74   19   69 1  
    75   20   70 1  
    76   20   71 1  
    77   22   72 1  
    78   25   73 1  
    79   26   74 1  
    80   28   75 1  
    81   28   76 1  
    82   31   77 1  
    83   32   78 1  
    84   34   79 1  
    85   38   80 1  
@<TRIPOS>SUBSTRUCTURE
     1 N0J         1

