### 
### Created by X-TOOL on Mon Aug  2 16:15:47 2021
### 

@<TRIPOS>MOLECULE
6oqc_ligand
   77    82     1     0     0
SMALL
GAST_HUCK


@<TRIPOS>ATOM
      1 C18       -12.5390    9.2340  -20.7780 C.3       1 N0S        -0.0684
      2 C12       -11.0830    8.7360  -20.7600 C.3       1 N0S        -0.0460
      3 C11       -10.2500    9.7160  -19.9730 C.3       1 N0S        -0.0047
      4 C10       -10.8690    9.9920  -18.6060 C.ar      1 N0S        -0.0167
      5 C16       -10.0220   10.4920  -17.6160 C.ar      1 N0S        -0.0155
      6 C15       -10.5100   10.7420  -16.3420 C.ar      1 N0S         0.0648
      7 CL1        -9.4580   11.3530  -15.1260 Cl        1 N0S        -0.0445
      8 C14       -11.8450   10.5180  -16.0210 C.ar      1 N0S        -0.0253
      9 C13       -12.6870   10.0150  -17.0120 C.ar      1 N0S        -0.0456
     10 C19       -12.2040    9.7520  -18.2900 C.ar      1 N0S        -0.0424
     11 C8        -13.1740    9.1960  -19.3770 C.3       1 N0S         0.0035
     12 C7        -13.5790    7.7490  -19.0490 C.3       1 N0S         0.0061
     13 C9        -14.4630   10.0710  -19.4230 C.3       1 N0S         0.0499
     14 O1        -15.4410    9.6910  -18.4010 O.3       1 N0S        -0.3293
     15 C2        -16.2650    8.7020  -18.7910 C.ar      1 N0S         0.1136
     16 C3        -17.5670    8.9780  -18.3920 C.ar      1 N0S        -0.0378
     17 C4        -18.5780    8.0930  -18.7220 C.ar      1 N0S        -0.0636
     18 C5        -18.2530    6.9750  -19.4840 C.ar      1 N0S         0.0281
     19 C6        -16.9630    6.7190  -19.9100 C.ar      1 N0S        -0.0327
     20 C1        -15.9200    7.5680  -19.5600 C.ar      1 N0S         0.0759
     21 N1        -14.6580    7.3050  -19.9760 N.pl3     1 N0S        -0.3196
     22 C20       -14.3360    5.9780  -20.5760 C.3       1 N0S         0.0270
     23 C21       -14.5550    4.7050  -19.7430 C.3       1 N0S        -0.0150
     24 C28       -13.3370    4.3160  -18.8620 C.3       1 N0S        -0.0475
     25 C29       -13.4310    2.8880  -19.4050 C.3       1 N0S        -0.0457
     26 C22       -14.1920    3.4970  -20.6000 C.3       1 N0S        -0.0037
     27 C27       -15.3960    2.6810  -21.0810 C.3       1 N0S         0.0757
     28 O5        -14.8870    1.5450  -21.7860 O.3       1 N0S        -0.3826
     29 C23       -16.2970    2.1680  -19.9690 C.2       1 N0S        -0.0703
     30 C24       -17.6750    2.2990  -20.0440 C.2       1 N0S        -0.0962
     31 C25       -18.4580    1.7450  -19.0290 C.3       1 N0S        -0.0346
     32 C30       -19.4600    2.7370  -18.4550 C.3       1 N0S        -0.0222
     33 C26       -20.5870    3.0620  -19.4570 C.3       1 N0S         0.0989
     34 C31       -21.6060    1.9350  -19.5740 C.3       1 N0S        -0.0406
     35 S1        -21.3280    4.6450  -18.9610 S.o2      1 N0S         0.0636
     36 O3        -21.9900    4.5130  -17.6160 O.2       1 N0S        -0.1505
     37 O4        -22.2880    5.1470  -20.0030 O.2       1 N0S        -0.1505
     38 N2        -20.1090    5.6890  -18.8070 N.am      1 N0S        -0.1592
     39 C17       -19.3250    5.9870  -19.8370 C.2       1 N0S         0.2134
     40 O2        -19.3900    5.4890  -20.9550 O.2       1 N0S        -0.3882
     41 H1        -13.1261    8.5932  -21.4523 H         1 N0S         0.0166
     42 H2        -12.5565   10.2695  -21.1487 H         1 N0S         0.0166
     43 H3        -10.7016    8.6682  -21.7895 H         1 N0S         0.0288
     44 H4        -11.0360    7.7447  -20.2855 H         1 N0S         0.0288
     45 H5        -10.1816   10.6601  -20.5333 H         1 N0S         0.0503
     46 H6         -9.2419    9.2989  -19.8329 H         1 N0S         0.0503
     47 H7         -8.9799   10.6855  -17.8433 H         1 N0S         0.0639
     48 H8        -12.2208   10.7290  -15.0264 H         1 N0S         0.0653
     49 H9        -13.7299    9.8267  -16.7841 H         1 N0S         0.0815
     50 H10       -13.9439    7.6978  -18.0126 H         1 N0S         0.0404
     51 H11       -12.7054    7.0903  -19.1632 H         1 N0S         0.0404
     52 H12       -14.9283    9.9604  -20.4136 H         1 N0S         0.0505
     53 H13       -14.1804   11.1224  -19.2659 H         1 N0S         0.0505
     54 H14       -17.7883    9.8770  -17.8282 H         1 N0S         0.0517
     55 H15       -19.5970    8.2661  -18.3953 H         1 N0S         0.0533
     56 H16       -16.7631    5.8476  -20.5230 H         1 N0S         0.0528
     57 H17       -13.2720    6.0008  -20.8542 H         1 N0S         0.0512
     58 H18       -14.9501    5.8780  -21.4831 H         1 N0S         0.0512
     59 H19       -15.5365    4.7004  -19.2465 H         1 N0S         0.0324
     60 H20       -13.5154    4.4014  -17.7799 H         1 N0S         0.0269
     61 H21       -12.4048    4.8387  -19.1223 H         1 N0S         0.0269
     62 H22       -14.0196    2.1950  -18.7859 H         1 N0S         0.0270
     63 H23       -12.4661    2.4244  -19.6582 H         1 N0S         0.0270
     64 H24       -13.5504    3.7358  -21.4610 H         1 N0S         0.0349
     65 H25       -15.9966    3.3065  -21.7578 H         1 N0S         0.0721
     66 H26       -15.6121    1.0166  -22.0984 H         1 N0S         0.2126
     67 H27       -15.8519    1.6891  -19.0981 H         1 N0S         0.0475
     68 H28       -18.1380    2.8238  -20.8783 H         1 N0S         0.0451
     69 H29       -17.7959    1.4047  -18.2192 H         1 N0S         0.0389
     70 H30       -19.0086    0.8852  -19.4383 H         1 N0S         0.0389
     71 H31       -18.9323    3.6677  -18.1993 H         1 N0S         0.0304
     72 H32       -19.9056    2.3066  -17.5461 H         1 N0S         0.0304
     73 H33       -20.1348    3.1941  -20.4510 H         1 N0S         0.0557
     74 H34       -21.0952    1.0088  -19.8760 H         1 N0S         0.0249
     75 H35       -22.3610    2.2002  -20.3288 H         1 N0S         0.0249
     76 H36       -22.0973    1.7825  -18.6017 H         1 N0S         0.0249
     77 H37       -19.9402    6.1197  -17.9204 H         1 N0S         0.2131
@<TRIPOS>BOND
     1    1    2 1  
     2    1   11 1  
     3    2    3 1  
     4    3    4 1  
     5    4    5 ar 
     6    4   10 ar 
     7    5    6 ar 
     8    6    7 1  
     9    6    8 ar 
    10    8    9 ar 
    11    9   10 ar 
    12   10   11 1  
    13   11   12 1  
    14   11   13 1  
    15   12   21 1  
    16   13   14 1  
    17   14   15 1  
    18   15   16 ar 
    19   15   20 ar 
    20   16   17 ar 
    21   17   18 ar 
    22   18   19 ar 
    23   18   39 1  
    24   19   20 ar 
    25   20   21 1  
    26   21   22 1  
    27   22   23 1  
    28   23   24 1  
    29   23   26 1  
    30   24   25 1  
    31   25   26 1  
    32   26   27 1  
    33   27   28 1  
    34   27   29 1  
    35   29   30 2  
    36   30   31 1  
    37   31   32 1  
    38   32   33 1  
    39   33   34 1  
    40   33   35 1  
    41   35   36 2  
    42   35   37 2  
    43   35   38 am 
    44   38   39 am 
    45   39   40 2  
    46    1   41 1  
    47    1   42 1  
    48    2   43 1  
    49    2   44 1  
    50    3   45 1  
    51    3   46 1  
    52    5   47 1  
    53    8   48 1  
    54    9   49 1  
    55   12   50 1  
    56   12   51 1  
    57   13   52 1  
    58   13   53 1  
    59   16   54 1  
    60   17   55 1  
    61   19   56 1  
    62   22   57 1  
    63   22   58 1  
    64   23   59 1  
    65   24   60 1  
    66   24   61 1  
    67   25   62 1  
    68   25   63 1  
    69   26   64 1  
    70   27   65 1  
    71   28   66 1  
    72   29   67 1  
    73   30   68 1  
    74   31   69 1  
    75   31   70 1  
    76   32   71 1  
    77   32   72 1  
    78   33   73 1  
    79   34   74 1  
    80   34   75 1  
    81   34   76 1  
    82   38   77 1  
@<TRIPOS>SUBSTRUCTURE
     1 N0S         1

