### 
### Created by X-TOOL on Mon Aug  2 16:15:47 2021
### 

@<TRIPOS>MOLECULE
6oqd_ligand
   79    84     1     0     0
SMALL
GAST_HUCK


@<TRIPOS>ATOM
      1 C14        12.3990   -1.3710   11.9320 C.3       1 N0M        -0.0684
      2 C13        10.9280   -1.3800   12.3410 C.3       1 N0M        -0.0460
      3 C12        10.0960   -2.1540   11.3330 C.3       1 N0M        -0.0047
      4 C11        10.7070   -3.5310   11.0730 C.ar      1 N0M        -0.0167
      5 C18         9.8870   -4.5190   10.5610 C.ar      1 N0M        -0.0155
      6 C17        10.3490   -5.8050   10.3010 C.ar      1 N0M         0.0648
      7 CL1         9.2510   -6.9820    9.6720 Cl        1 N0M        -0.0445
      8 C16        11.6780   -6.1270   10.5430 C.ar      1 N0M        -0.0253
      9 C15        12.5270   -5.1400   11.0480 C.ar      1 N0M        -0.0456
     10 C10        12.0510   -3.8490   11.3210 C.ar      1 N0M        -0.0424
     11 C8         13.0180   -2.7770   11.8850 C.3       1 N0M         0.0035
     12 C7         13.4130   -3.1210   13.3160 C.3       1 N0M         0.0061
     13 C9         14.2840   -2.7140   11.0550 C.3       1 N0M         0.0499
     14 O1         15.2130   -3.7680   11.3990 O.3       1 N0M        -0.3293
     15 C2         16.1050   -3.3840   12.3660 C.ar      1 N0M         0.1136
     16 C3         17.4240   -3.7790   12.1060 C.ar      1 N0M        -0.0378
     17 C4         18.4340   -3.4730   12.9990 C.ar      1 N0M        -0.0636
     18 C5         18.1240   -2.7490   14.1480 C.ar      1 N0M         0.0281
     19 C6         16.8240   -2.3640   14.4110 C.ar      1 N0M        -0.0327
     20 C1         15.8000   -2.6750   13.5220 C.ar      1 N0M         0.0759
     21 N1         14.5470   -2.3500   13.8330 N.pl3     1 N0M        -0.3196
     22 C20        14.2070   -1.5450   15.0450 C.3       1 N0M         0.0269
     23 C21        14.3650   -2.3910   16.3350 C.3       1 N0M        -0.0166
     24 C24        13.0850   -3.1150   16.7950 C.3       1 N0M        -0.0478
     25 C23        13.4100   -2.6280   18.2280 C.3       1 N0M        -0.0472
     26 C22        14.2400   -1.5130   17.5920 C.3       1 N0M        -0.0104
     27 C25        15.5910   -1.2140   18.3060 C.3       1 N0M         0.0584
     28 O3         15.3500   -0.4470   19.5080 O.3       1 N0M        -0.3915
     29 C26        16.4710   -2.4330   18.6440 C.3       1 N0M        -0.0266
     30 C27        17.8120   -1.9720   19.2450 C.3       1 N0M        -0.0507
     31 C30        18.6970   -3.1360   19.6650 C.3       1 N0M        -0.0512
     32 C29        19.4810   -3.7240   18.5000 C.3       1 N0M        -0.0288
     33 C28        20.6220   -2.8040   18.0750 C.3       1 N0M         0.0973
     34 C31        21.7730   -2.8600   19.0810 C.3       1 N0M        -0.0407
     35 S1         21.2330   -3.2540   16.4210 S.o2      1 N0M         0.0635
     36 O4         22.1040   -2.1820   15.9430 O.2       1 N0M        -0.1505
     37 O5         21.9580   -4.5750   16.4750 O.2       1 N0M        -0.1505
     38 N2         20.0300   -3.4070   15.3660 N.am      1 N0M        -0.1592
     39 C19        19.2010   -2.3960   15.1470 C.2       1 N0M         0.2134
     40 O2         19.1860   -1.3070   15.7290 O.2       1 N0M        -0.3882
     41 H1         12.9609   -0.7648   12.6578 H         1 N0M         0.0166
     42 H2         12.4823   -0.9178   10.9332 H         1 N0M         0.0166
     43 H3         10.5611   -0.3443   12.3928 H         1 N0M         0.0288
     44 H4         10.8307   -1.8534   13.3291 H         1 N0M         0.0288
     45 H5         10.0577   -1.5916   10.3884 H         1 N0M         0.0503
     46 H6          9.0765   -2.2797   11.7266 H         1 N0M         0.0503
     47 H7          8.8490   -4.2837   10.3552 H         1 N0M         0.0639
     48 H8         12.0493   -7.1257   10.3436 H         1 N0M         0.0653
     49 H9         13.5692   -5.3749   11.2318 H         1 N0M         0.0815
     50 H10        13.6772   -4.1882   13.3529 H         1 N0M         0.0404
     51 H11        12.5456   -2.9352   13.9665 H         1 N0M         0.0404
     52 H12        14.7713   -1.7425   11.2244 H         1 N0M         0.0505
     53 H13        14.0166   -2.8098    9.9923 H         1 N0M         0.0505
     54 H14        17.6537   -4.3275   11.1997 H         1 N0M         0.0517
     55 H15        19.4523   -3.7918   12.8079 H         1 N0M         0.0533
     56 H16        16.5995   -1.8146   15.3181 H         1 N0M         0.0528
     57 H17        13.1658   -1.1990   14.9668 H         1 N0M         0.0511
     58 H18        14.8791   -0.6759   15.1000 H         1 N0M         0.0511
     59 H19        15.2631   -3.0234   16.2761 H         1 N0M         0.0323
     60 H20        13.1035   -4.2072   16.6659 H         1 N0M         0.0269
     61 H21        12.1525   -2.7117   16.3734 H         1 N0M         0.0269
     62 H22        13.9882   -3.3408   18.8343 H         1 N0M         0.0269
     63 H23        12.5388   -2.2801   18.8025 H         1 N0M         0.0269
     64 H24        13.6928   -0.5713   17.4376 H         1 N0M         0.0329
     65 H25        16.1759   -0.5868   17.6171 H         1 N0M         0.0596
     66 H26        16.1773   -0.2677   19.9391 H         1 N0M         0.2098
     67 H27        16.6630   -3.0080   17.7261 H         1 N0M         0.0290
     68 H28        15.9463   -3.0690   19.3721 H         1 N0M         0.0290
     69 H29        17.6065   -1.3494   20.1282 H         1 N0M         0.0266
     70 H30        18.3486   -1.3754   18.4926 H         1 N0M         0.0266
     71 H31        18.0620   -3.9240   20.0960 H         1 N0M         0.0266
     72 H32        19.4084   -2.7815   20.4254 H         1 N0M         0.0266
     73 H33        18.8010   -3.8678   17.6474 H         1 N0M         0.0284
     74 H34        19.8988   -4.6952   18.8038 H         1 N0M         0.0284
     75 H35        20.2394   -1.7733   18.0384 H         1 N0M         0.0556
     76 H36        21.4007   -2.5876   20.0796 H         1 N0M         0.0249
     77 H37        22.5598   -2.1536   18.7777 H         1 N0M         0.0249
     78 H38        22.1861   -3.8791   19.1092 H         1 N0M         0.0249
     79 H39        19.9065   -4.2682   14.8729 H         1 N0M         0.2131
@<TRIPOS>BOND
     1    1    2 1  
     2    1   11 1  
     3    2    3 1  
     4    3    4 1  
     5    4    5 ar 
     6    4   10 ar 
     7    5    6 ar 
     8    6    7 1  
     9    6    8 ar 
    10    8    9 ar 
    11    9   10 ar 
    12   10   11 1  
    13   11   12 1  
    14   11   13 1  
    15   12   21 1  
    16   13   14 1  
    17   14   15 1  
    18   15   16 ar 
    19   15   20 ar 
    20   16   17 ar 
    21   17   18 ar 
    22   18   19 ar 
    23   18   39 1  
    24   19   20 ar 
    25   20   21 1  
    26   21   22 1  
    27   22   23 1  
    28   23   24 1  
    29   23   26 1  
    30   24   25 1  
    31   25   26 1  
    32   26   27 1  
    33   27   28 1  
    34   27   29 1  
    35   29   30 1  
    36   30   31 1  
    37   31   32 1  
    38   32   33 1  
    39   33   34 1  
    40   33   35 1  
    41   35   36 2  
    42   35   37 2  
    43   35   38 am 
    44   38   39 am 
    45   39   40 2  
    46    1   41 1  
    47    1   42 1  
    48    2   43 1  
    49    2   44 1  
    50    3   45 1  
    51    3   46 1  
    52    5   47 1  
    53    8   48 1  
    54    9   49 1  
    55   12   50 1  
    56   12   51 1  
    57   13   52 1  
    58   13   53 1  
    59   16   54 1  
    60   17   55 1  
    61   19   56 1  
    62   22   57 1  
    63   22   58 1  
    64   23   59 1  
    65   24   60 1  
    66   24   61 1  
    67   25   62 1  
    68   25   63 1  
    69   26   64 1  
    70   27   65 1  
    71   28   66 1  
    72   29   67 1  
    73   29   68 1  
    74   30   69 1  
    75   30   70 1  
    76   31   71 1  
    77   31   72 1  
    78   32   73 1  
    79   32   74 1  
    80   33   75 1  
    81   34   76 1  
    82   34   77 1  
    83   34   78 1  
    84   38   79 1  
@<TRIPOS>SUBSTRUCTURE
     1 N0M         1

