### 
### Created by X-TOOL on Mon Aug  2 16:15:47 2021
### 

@<TRIPOS>MOLECULE
6oqn_ligand
   66    70     1     0     0
SMALL
GAST_HUCK


@<TRIPOS>ATOM
      1 C1        -11.4570   10.8460  -16.0090 C.ar      1 N0P        -0.0253
      2 C2        -10.1420   10.8900  -16.5370 C.ar      1 N0P         0.0648
      3 C3         -9.8180   10.4390  -17.8420 C.ar      1 N0P        -0.0155
      4 O4        -20.7570    4.8090  -22.3780 O.2       1 N0P        -0.1507
      5 O5        -17.9690    2.2710  -20.0580 O.3       1 N0P        -0.3781
      6 C7        -16.6700    6.4880  -19.9870 C.ar      1 N0P        -0.0327
      7 C8        -18.0210    6.7520  -19.7760 C.ar      1 N0P         0.0281
      8 C9        -18.4590    7.8510  -19.0350 C.ar      1 N0P        -0.0636
      9 C10       -17.5380    8.7480  -18.4980 C.ar      1 N0P        -0.0378
     10 C11       -14.4760    9.9860  -19.2030 C.3       1 N0P         0.0501
     11 C12       -13.3260    7.7560  -18.7680 C.3       1 N0P         0.0062
     12 C13       -15.7020    7.3660  -19.4530 C.ar      1 N0P         0.0759
     13 C14       -16.1610    8.5090  -18.7080 C.ar      1 N0P         0.1136
     14 C15       -13.1020    9.2300  -19.1190 C.3       1 N0P         0.0058
     15 C16       -18.9990    5.8730  -20.3380 C.2       1 N0P         0.2134
     16 C19       -13.9160    4.6080  -19.5480 C.3       1 N0P        -0.0337
     17 C20       -13.9220    3.3350  -20.3720 C.3       1 N0P        -0.0512
     18 C21       -10.7460    9.3880  -20.0080 C.3       1 N0P        -0.0117
     19 C22       -12.2490    9.2730  -20.4230 C.3       1 N0P        -0.0562
     20 C24       -15.2410    2.5770  -20.4440 C.3       1 N0P        -0.0509
     21 N1        -14.3560    7.0480  -19.5630 N.pl3     1 N0P        -0.3199
     22 O1        -15.3380    9.4980  -18.1870 O.3       1 N0P        -0.3293
     23 O2        -20.1760    5.8820  -19.9430 O.2       1 N0P        -0.3882
     24 N2        -18.5620    5.0520  -21.3230 N.am      1 N0P        -0.1593
     25 C17       -13.8970    5.9190  -20.4030 C.3       1 N0P         0.0237
     26 C4        -10.8590    9.9140  -18.6200 C.ar      1 N0P        -0.0175
     27 C5        -12.1660    9.8460  -18.1240 C.ar      1 N0P        -0.0422
     28 C6        -12.4740   10.3100  -16.8280 C.ar      1 N0P        -0.0456
     29 CL1        -8.8710   11.4470  -15.4810 Cl        1 N0P        -0.0445
     30 S1        -19.6930    3.9270  -21.8150 S.o2      1 N0P         0.0631
     31 C23       -20.2630    3.1850  -20.2930 C.3       1 N0P         0.1123
     32 O3        -18.9740    2.9530  -22.6580 O.2       1 N0P        -0.1507
     33 C18       -19.3400    2.0040  -20.0730 C.3       1 N0P         0.0691
     34 C25       -17.2020    1.3330  -19.4100 C.3       1 N0P         0.0477
     35 C26       -15.7770    1.8570  -19.2440 C.3       1 N0P        -0.0295
     36 H1        -11.6738   11.2111  -15.0116 H         1 N0P         0.0653
     37 H2         -8.8048   10.4980  -18.2229 H         1 N0P         0.0639
     38 H3        -16.3647    5.6170  -20.5556 H         1 N0P         0.0528
     39 H4        -19.5200    8.0071  -18.8768 H         1 N0P         0.0533
     40 H5        -17.8704    9.6104  -17.9315 H         1 N0P         0.0517
     41 H6        -14.9326    9.8116  -20.1884 H         1 N0P         0.0505
     42 H7        -14.3123   11.0644  -19.0604 H         1 N0P         0.0505
     43 H8        -13.6226    7.7033  -17.7101 H         1 N0P         0.0405
     44 H9        -12.3712    7.2279  -18.9079 H         1 N0P         0.0405
     45 H10       -13.0227    4.6006  -18.9062 H         1 N0P         0.0284
     46 H11       -14.8189    4.6178  -18.9197 H         1 N0P         0.0284
     47 H12       -13.1698    2.6563  -19.9436 H         1 N0P         0.0266
     48 H13       -13.6331    3.6009  -21.3995 H         1 N0P         0.0266
     49 H14       -10.2019   10.0877  -20.6595 H         1 N0P         0.0494
     50 H15       -10.2482    8.4073  -20.0264 H         1 N0P         0.0494
     51 H16       -12.5371   10.1439  -21.0300 H         1 N0P         0.0195
     52 H17       -12.4072    8.3525  -21.0041 H         1 N0P         0.0195
     53 H18       -15.1273    1.8236  -21.2374 H         1 N0P         0.0266
     54 H19       -16.0077    3.3082  -20.7398 H         1 N0P         0.0266
     55 H20       -17.6459    5.1142  -21.7191 H         1 N0P         0.2131
     56 H21       -14.5680    5.8056  -21.2672 H         1 N0P         0.0509
     57 H22       -12.8738    6.1143  -20.7563 H         1 N0P         0.0509
     58 H23       -13.4924   10.2549  -16.4608 H         1 N0P         0.0815
     59 H24       -21.3059    2.8494  -20.3916 H         1 N0P         0.0546
     60 H25       -20.1848    3.8991  -19.4600 H         1 N0P         0.0546
     61 H26       -19.6019    1.5528  -19.1046 H         1 N0P         0.0577
     62 H27       -19.5292    1.2791  -20.8785 H         1 N0P         0.0577
     63 H28       -17.1836    0.4050  -20.0002 H         1 N0P         0.0560
     64 H29       -17.6340    1.1289  -18.4192 H         1 N0P         0.0560
     65 H30       -15.7625    2.5511  -18.3908 H         1 N0P         0.0287
     66 H31       -15.1181    1.0020  -19.0324 H         1 N0P         0.0287
@<TRIPOS>BOND
     1    1    2 ar 
     2   28    1 ar 
     3    3    2 ar 
     4    2   29 1  
     5   26    3 ar 
     6   30    4 2  
     7   33    5 1  
     8    5   34 1  
     9    7    6 ar 
    10    6   12 ar 
    11    7    8 ar 
    12   15    7 1  
    13    8    9 ar 
    14    9   13 ar 
    15   10   14 1  
    16   22   10 1  
    17   11   14 1  
    18   21   11 1  
    19   12   13 ar 
    20   12   21 1  
    21   13   22 1  
    22   14   19 1  
    23   14   27 1  
    24   15   23 2  
    25   24   15 am 
    26   16   17 1  
    27   25   16 1  
    28   17   20 1  
    29   19   18 1  
    30   26   18 1  
    31   20   35 1  
    32   21   25 1  
    33   30   24 am 
    34   27   26 ar 
    35   27   28 ar 
    36   31   30 1  
    37   30   32 2  
    38   31   33 1  
    39   34   35 1  
    40    1   36 1  
    41    3   37 1  
    42    6   38 1  
    43    8   39 1  
    44    9   40 1  
    45   10   41 1  
    46   10   42 1  
    47   11   43 1  
    48   11   44 1  
    49   16   45 1  
    50   16   46 1  
    51   17   47 1  
    52   17   48 1  
    53   18   49 1  
    54   18   50 1  
    55   19   51 1  
    56   19   52 1  
    57   20   53 1  
    58   20   54 1  
    59   24   55 1  
    60   25   56 1  
    61   25   57 1  
    62   28   58 1  
    63   31   59 1  
    64   31   60 1  
    65   33   61 1  
    66   33   62 1  
    67   34   63 1  
    68   34   64 1  
    69   35   65 1  
    70   35   66 1  
@<TRIPOS>SUBSTRUCTURE
     1 N0P         1

