### 
### Created by X-TOOL on Mon Aug  2 16:15:47 2021
### 

@<TRIPOS>MOLECULE
6orr_ligand
   64    67     1     0     0
SMALL
GAST_HUCK


@<TRIPOS>ATOM
      1 C1         -3.9430   -2.8230   -9.4840 C.ar      1 N37         0.1613
      2 C2         -5.9840   -2.6890   -8.6870 C.ar      1 N37         0.0533
      3 C3         -5.6590   -1.8560  -10.8110 C.ar      1 N37         0.1298
      4 C4         -4.3460   -2.2060  -10.7090 C.ar      1 N37         0.1045
      5 C5         -2.1700   -2.6780  -10.7920 C.2       1 N37         0.1123
      6 C6         -1.9260   -3.6460   -8.6630 C.3       1 N37         0.2009
      7 C7         -1.0190   -4.6940   -9.2070 C.3       1 N37         0.1384
      8 C8          0.0900   -4.7720   -8.2490 C.3       1 N37         0.1124
      9 C9          0.0690   -3.5040   -7.4610 C.3       1 N37         0.0917
     10 C10         1.3790   -2.8010   -7.5890 C.3       1 N37        -0.0102
     11 C11         2.3700   -3.3580   -6.5670 C.3       1 N37         0.0237
     12 C12         1.7090   -3.4460   -5.1910 C.3       1 N37        -0.0325
     13 C13         2.7900   -3.5720   -4.1170 C.3       1 N37         0.0035
     14 C14         2.1560   -3.8330   -2.7520 C.3       1 N37         0.0284
     15 C15         3.1380   -3.4050   -1.6650 C.2       1 N37         0.0844
     16 C16         3.5780   -2.4280   -6.4910 C.1       1 N37        -0.0935
     17 C17         4.5020   -1.6890   -6.4340 C.1       1 N37        -0.0649
     18 C18         5.6750   -0.7160   -6.3750 C.ar      1 N37         0.0305
     19 C19         6.8320   -1.0500   -5.6900 C.ar      1 N37        -0.0421
     20 C20         7.8910   -0.1560   -5.6460 C.ar      1 N37        -0.0551
     21 C21         7.7910    1.0690   -6.2850 C.ar      1 N37        -0.0419
     22 C22         6.6330    1.4010   -6.9700 C.ar      1 N37         0.0509
     23 C23         5.5760    0.5090   -7.0140 C.ar      1 N37        -0.0264
     24 C24         6.5160    2.7490   -7.6790 C.2       1 N37         0.2026
     25 N1         -2.7000   -3.0280   -9.6830 N.pl3     1 N37        -0.1919
     26 N2         -4.7230   -3.0860   -8.4460 N.ar      1 N37        -0.2714
     27 N3         -6.4610   -2.1040   -9.7950 N.ar      1 N37        -0.2698
     28 N4         -6.1680   -1.2230  -12.0130 N.pl3     1 N37        -0.3152
     29 N5         -3.1100   -2.1150  -11.5960 N.2       1 N37        -0.2958
     30 N6          0.9190   -3.0820   -2.6250 N.4       1 N37         0.2327
     31 N7          5.2110    3.3330   -7.9230 N.am      1 N37        -0.3000
     32 O1         -1.0300   -2.6780   -7.9960 O.3       1 N37        -0.3390
     33 O2         -1.6990   -5.9610   -9.2750 O.3       1 N37        -0.3836
     34 O3         -0.1160   -5.8880   -7.3610 O.3       1 N37        -0.3865
     35 O4          2.7210   -2.8250   -0.6280 O.co2     1 N37        -0.5643
     36 O5          4.3690   -3.6340   -1.8110 O.co2     1 N37        -0.5643
     37 O6          7.4920    3.3170   -8.0340 O.2       1 N37        -0.3848
     38 H1         -6.7000   -2.8622   -7.8917 H         1 N37         0.0996
     39 H2         -1.1213   -2.8111  -11.0538 H         1 N37         0.1349
     40 H3         -2.6111   -4.0912   -7.9265 H         1 N37         0.0996
     41 H4         -0.6543   -4.4134  -10.2061 H         1 N37         0.0676
     42 H5          1.0485   -4.8832   -8.7771 H         1 N37         0.0647
     43 H6         -0.1178   -3.7262   -6.4000 H         1 N37         0.0624
     44 H7          1.2350   -1.7255   -7.4088 H         1 N37         0.0303
     45 H8          1.7769   -2.9528   -8.6032 H         1 N37         0.0303
     46 H9          2.6955   -4.3609   -6.8805 H         1 N37         0.0434
     47 H10         1.0513   -4.3270   -5.1552 H         1 N37         0.0280
     48 H11         1.1155   -2.5377   -5.0099 H         1 N37         0.0280
     49 H12         3.3697   -2.6381   -4.0748 H         1 N37         0.0339
     50 H13         3.4586   -4.4075   -4.3718 H         1 N37         0.0339
     51 H14         1.9396   -4.9065   -2.6483 H         1 N37         0.1024
     52 H15         6.9092   -2.0084   -5.1894 H         1 N37         0.0664
     53 H16         8.7975   -0.4158   -5.1114 H         1 N37         0.0629
     54 H17         8.6187    1.7680   -6.2492 H         1 N37         0.0669
     55 H18         4.6698    0.7691   -7.5490 H         1 N37         0.0683
     56 H19        -7.1628   -0.9636  -12.0767 H         1 N37         0.1820
     57 H20        -5.5346   -1.0329  -12.8027 H         1 N37         0.1820
     58 H21         0.5087   -3.2607   -1.7218 H         1 N37         0.2010
     59 H22         0.2771   -3.3671   -3.3480 H         1 N37         0.2010
     60 H23         1.1129   -2.0971   -2.7170 H         1 N37         0.2010
     61 H24         5.1371    4.2156   -8.3873 H         1 N37         0.1808
     62 H25         4.3852    2.8531   -7.6269 H         1 N37         0.1808
     63 H26        -2.0410   -6.1820   -8.4167 H         1 N37         0.2101
     64 H27        -0.9566   -5.7958   -6.9281 H         1 N37         0.2100
@<TRIPOS>BOND
     1    1    4 ar 
     2   25    1 1  
     3    1   26 ar 
     4   26    2 ar 
     5    2   27 ar 
     6    4    3 ar 
     7    3   27 ar 
     8    3   28 1  
     9   29    4 1  
    10   25    5 1  
    11    5   29 2  
    12    6    7 1  
    13    6   25 1  
    14    6   32 1  
    15    7    8 1  
    16    7   33 1  
    17    8    9 1  
    18    8   34 1  
    19    9   10 1  
    20    9   32 1  
    21   10   11 1  
    22   11   12 1  
    23   11   16 1  
    24   12   13 1  
    25   13   14 1  
    26   14   15 1  
    27   14   30 1  
    28   15   35 ar 
    29   15   36 ar 
    30   16   17 3  
    31   17   18 1  
    32   18   19 ar 
    33   18   23 ar 
    34   19   20 ar 
    35   20   21 ar 
    36   21   22 ar 
    37   22   23 ar 
    38   22   24 1  
    39   24   31 am 
    40   24   37 2  
    41    2   38 1  
    42    5   39 1  
    43    6   40 1  
    44    7   41 1  
    45    8   42 1  
    46    9   43 1  
    47   10   44 1  
    48   10   45 1  
    49   11   46 1  
    50   12   47 1  
    51   12   48 1  
    52   13   49 1  
    53   13   50 1  
    54   14   51 1  
    55   19   52 1  
    56   20   53 1  
    57   21   54 1  
    58   23   55 1  
    59   28   56 1  
    60   28   57 1  
    61   30   58 1  
    62   30   59 1  
    63   30   60 1  
    64   31   61 1  
    65   31   62 1  
    66   33   63 1  
    67   34   64 1  
@<TRIPOS>SUBSTRUCTURE
     1 N37         1

