### 
### Created by X-TOOL on Mon Aug  2 16:12:05 2021
### 

@<TRIPOS>MOLECULE
6os5_ligand
   27    28     1     0     0
SMALL
GAST_HUCK


@<TRIPOS>ATOM
      1 N          -0.8320   32.0430   21.8230 N.4       1 TRP         0.2336
      2 CA         -0.3850   30.7120   21.3840 C.3       1 TRP         0.0324
      3 C          -1.5990   29.7870   21.4360 C.2       1 TRP         0.0858
      4 O          -1.5430   28.6370   20.9800 O.co2     1 TRP        -0.5642
      5 CB          0.7750   30.1780   22.2460 C.3       1 TRP         0.0190
      6 CG          0.5280   30.3010   23.7110 C.2       1 TRP        -0.0392
      7 CD1         0.8800   31.3480   24.5170 C.2       1 TRP         0.0167
      8 CD2        -0.1470   29.3590   24.5510 C.ar      1 TRP        -0.0213
      9 NE1         0.4470   31.1230   25.8000 N.pl3     1 TRP        -0.2890
     10 CE2        -0.1730   29.9030   25.8510 C.ar      1 TRP         0.0603
     11 CE3        -0.7230   28.1100   24.3310 C.ar      1 TRP        -0.0747
     12 CZ2        -0.7580   29.2470   26.9200 C.ar      1 TRP        -0.0443
     13 CZ3        -1.3090   27.4560   25.3990 C.ar      1 TRP        -0.0792
     14 CH2        -1.3180   28.0270   26.6790 C.ar      1 TRP        -0.0768
     15 OXT        -2.6740   30.1930   21.9190 O.co2     1 TRP        -0.5642
     16 H1         -0.0535   32.6829   21.8014 H         1 TRP         0.2011
     17 H2         -1.1920   31.9836   22.7626 H         1 TRP         0.2011
     18 H3         -1.5567   32.3746   21.2058 H         1 TRP         0.2011
     19 H4         -0.0323   30.7802   20.3443 H         1 TRP         0.1040
     20 H5          1.6844   30.7445   21.9968 H         1 TRP         0.0423
     21 H6          0.9276   29.1154   22.0060 H         1 TRP         0.0423
     22 H7          1.4247   32.2320   24.1887 H         1 TRP         0.0795
     23 H8          0.5686   31.7668   26.5948 H         1 TRP         0.2216
     24 H9         -0.7121   27.6608   23.3445 H         1 TRP         0.0540
     25 H10        -0.7706   29.6861   27.9110 H         1 TRP         0.0541
     26 H11        -1.7686   26.4866   25.2440 H         1 TRP         0.0510
     27 H12        -1.7809   27.4863   27.4966 H         1 TRP         0.0530
@<TRIPOS>BOND
     1    1    2 1  
     2    2    3 1  
     3    2    5 1  
     4    3    4 ar 
     5    3   15 ar 
     6    5    6 1  
     7    6    7 2  
     8    6    8 1  
     9    7    9 1  
    10    8   10 ar 
    11    8   11 ar 
    12    9   10 1  
    13   10   12 ar 
    14   11   13 ar 
    15   12   14 ar 
    16   13   14 ar 
    17    1   16 1  
    18    1   17 1  
    19    1   18 1  
    20    2   19 1  
    21    5   20 1  
    22    5   21 1  
    23    7   22 1  
    24    9   23 1  
    25   11   24 1  
    26   12   25 1  
    27   13   26 1  
    28   14   27 1  
@<TRIPOS>SUBSTRUCTURE
     1 TRP         1

