### 
### Created by X-TOOL on Mon Aug  2 16:12:05 2021
### 

@<TRIPOS>MOLECULE
6os6_ligand
   27    28     1     0     0
SMALL
GAST_HUCK


@<TRIPOS>ATOM
      1 N          45.0680   11.1760   20.5080 N.4       1 TRP         0.2336
      2 CA         44.5330   11.9460   19.3830 C.3       1 TRP         0.0324
      3 C          45.2460   13.2800   19.2760 C.2       1 TRP         0.0858
      4 O          44.9860   14.0370   18.3290 O.co2     1 TRP        -0.5642
      5 CB         43.0170   12.1270   19.5160 C.3       1 TRP         0.0190
      6 CG         42.5720   12.5660   20.8650 C.2       1 TRP        -0.0392
      7 CD1        42.1210   11.7690   21.8810 C.2       1 TRP         0.0167
      8 CD2        42.5680   13.9040   21.3770 C.ar      1 TRP        -0.0213
      9 NE1        41.8320   12.5250   22.9840 N.pl3     1 TRP        -0.2890
     10 CE2        42.1030   13.8380   22.7040 C.ar      1 TRP         0.0603
     11 CE3        42.9030   15.1510   20.8420 C.ar      1 TRP        -0.0747
     12 CZ2        41.9460   14.9760   23.4990 C.ar      1 TRP        -0.0443
     13 CZ3        42.7570   16.2730   21.6390 C.ar      1 TRP        -0.0792
     14 CH2        42.2820   16.1760   22.9490 C.ar      1 TRP        -0.0768
     15 OXT        46.1010   13.5560   20.1200 O.co2     1 TRP        -0.5642
     16 H1         44.5870   10.2923   20.5692 H         1 TRP         0.2011
     17 H2         44.9325   11.6922   21.3631 H         1 TRP         0.2011
     18 H3         46.0526   11.0135   20.3660 H         1 TRP         0.2011
     19 H4         44.7260   11.3817   18.4587 H         1 TRP         0.1040
     20 H5         42.5335   11.1654   19.2892 H         1 TRP         0.0423
     21 H6         42.6940   12.8816   18.7837 H         1 TRP         0.0423
     22 H7         42.0081   10.6875   21.8206 H         1 TRP         0.0795
     23 H8         41.4698   12.1655   23.8787 H         1 TRP         0.2216
     24 H9         43.2691   15.2374   19.8253 H         1 TRP         0.0540
     25 H10        41.5714   14.9067   24.5139 H         1 TRP         0.0541
     26 H11        43.0164   17.2464   21.2387 H         1 TRP         0.0510
     27 H12        42.1783   17.0774   23.5422 H         1 TRP         0.0530
@<TRIPOS>BOND
     1    1    2 1  
     2    2    3 1  
     3    2    5 1  
     4    3    4 ar 
     5    3   15 ar 
     6    5    6 1  
     7    6    7 2  
     8    6    8 1  
     9    7    9 1  
    10    8   10 ar 
    11    8   11 ar 
    12    9   10 1  
    13   10   12 ar 
    14   11   13 ar 
    15   12   14 ar 
    16   13   14 ar 
    17    1   16 1  
    18    1   17 1  
    19    1   18 1  
    20    2   19 1  
    21    5   20 1  
    22    5   21 1  
    23    7   22 1  
    24    9   23 1  
    25   11   24 1  
    26   12   25 1  
    27   13   26 1  
    28   14   27 1  
@<TRIPOS>SUBSTRUCTURE
     1 TRP         1

