### 
### Created by X-TOOL on Mon Aug  2 16:15:47 2021
### 

@<TRIPOS>MOLECULE
6otg_ligand
   83    86     1     0     0
SMALL
GAST_HUCK


@<TRIPOS>ATOM
      1 C2         21.0630   27.5430   15.1740 C.ar      1 MOL         0.0908
      2 C3         19.7120   27.4680   14.8190 C.ar      1 MOL        -0.0313
      3 C4         18.9500   26.3210   15.0770 C.ar      1 MOL        -0.0440
      4 C5         19.5460   25.2070   15.7100 C.ar      1 MOL         0.0971
      5 C6         20.9150   25.3310   16.0380 C.ar      1 MOL        -0.0440
      6 C7         21.6730   26.4750   15.7990 C.ar      1 MOL        -0.0313
      7 S8         18.6820   23.8150   16.0940 S.o2      1 MOL         0.0657
      8 O9         17.6470   23.7230   15.0970 O.2       1 MOL        -0.1515
      9 O10        19.5920   22.6690   16.2140 O.2       1 MOL        -0.1515
     10 N11        18.0180   24.1990   17.5710 N.am      1 MOL        -0.2325
     11 C12        18.9210   23.9940   18.7010 C.3       1 MOL         0.0319
     12 C13        18.4380   23.5350   20.0230 C.3       1 MOL        -0.0296
     13 C14        18.3500   22.0740   19.8220 C.3       1 MOL        -0.0612
     14 C15        19.5090   23.8910   21.0460 C.3       1 MOL        -0.0612
     15 C16        16.6620   24.8080   17.6230 C.3       1 MOL         0.0578
     16 C17        15.5440   23.8990   18.1050 C.3       1 MOL         0.0967
     17 O18        14.3870   24.6600   18.4300 O.3       1 MOL        -0.3877
     18 C19        15.1780   22.7880   17.1130 C.3       1 MOL         0.0807
     19 N20        14.2610   21.8310   17.7200 N.am      1 MOL        -0.2550
     20 C21        14.5380   20.5450   17.9350 C.2       1 MOL         0.3203
     21 O22        15.6210   19.9720   17.6820 O.2       1 MOL        -0.3775
     22 O23        13.4670   19.8810   18.5700 O.3       1 MOL        -0.2576
     23 C24        13.7000   18.5260   18.9220 C.3       1 MOL         0.1240
     24 C25        13.3070   18.4530   20.4050 C.3       1 MOL         0.0818
     25 O26        11.8600   18.4880   20.3730 O.3       1 MOL        -0.3478
     26 C27        11.4030   17.8930   19.1560 C.3       1 MOL         0.1703
     27 O28        10.4680   18.7580   18.4880 O.3       1 MOL        -0.3452
     28 C29        10.9590   19.0720   17.1510 C.3       1 MOL         0.0938
     29 C30        12.0840   18.1340   16.8110 C.3       1 MOL         0.0115
     30 C31        12.6050   17.7220   18.2100 C.3       1 MOL         0.0874
     31 N41        11.6080   16.9400   16.0870 N.4       1 MOL         0.2290
     32 C42        11.1780   17.2140   14.7190 C.3       1 MOL        -0.0445
     33 C32        14.3730   23.2490   15.9190 C.3       1 MOL         0.0064
     34 C33        12.6950   21.6480   14.8690 C.ar      1 MOL        -0.0603
     35 C34        12.4060   20.5760   14.0380 C.ar      1 MOL        -0.0686
     36 C35        13.4270   19.9260   13.3230 C.ar      1 MOL        -0.0687
     37 C36        14.7150   20.4060   13.4710 C.ar      1 MOL        -0.0686
     38 C37        15.0240   21.4650   14.3300 C.ar      1 MOL        -0.0603
     39 C38        14.0230   22.0820   15.0250 C.ar      1 MOL        -0.0408
     40 O39        21.8040   28.6930   14.9740 O.3       1 MOL        -0.3212
     41 C40        23.1280   28.6920   15.4260 C.3       1 MOL         0.0594
     42 H1         19.2441   28.3166   14.3333 H         1 MOL         0.0542
     43 H2         17.9048   26.2881   14.7915 H         1 MOL         0.0608
     44 H3         21.4053   24.4840   16.5041 H         1 MOL         0.0608
     45 H4         22.7143   26.5248   16.0961 H         1 MOL         0.0542
     46 H5         19.4197   24.9589   18.8745 H         1 MOL         0.0480
     47 H6         19.6628   23.2520   18.3706 H         1 MOL         0.0480
     48 H7         17.4678   23.9730   20.3002 H         1 MOL         0.0311
     49 H8         17.9954   21.5973   20.7477 H         1 MOL         0.0233
     50 H9         19.3435   21.6789   19.5635 H         1 MOL         0.0233
     51 H10        17.6455   21.8580   19.0053 H         1 MOL         0.0233
     52 H11        19.5478   24.9832   21.1712 H         1 MOL         0.0233
     53 H12        20.4862   23.5272   20.6956 H         1 MOL         0.0233
     54 H13        19.2664   23.4198   22.0099 H         1 MOL         0.0233
     55 H14        16.4061   25.1480   16.6086 H         1 MOL         0.0504
     56 H15        16.7073   25.6742   18.2995 H         1 MOL         0.0504
     57 H16        15.8972   23.4110   19.0254 H         1 MOL         0.0634
     58 H17        14.0919   25.1304   17.6592 H         1 MOL         0.2100
     59 H18        16.1046   22.2957   16.7828 H         1 MOL         0.0604
     60 H19        13.3588   22.1634   17.9950 H         1 MOL         0.1873
     61 H20        14.7211   18.1781   18.7069 H         1 MOL         0.0677
     62 H21        13.7089   19.3128   20.9611 H         1 MOL         0.0590
     63 H22        13.6677   17.5197   20.8619 H         1 MOL         0.0590
     64 H23        10.9358   16.9201   19.3684 H         1 MOL         0.0915
     65 H24        11.3234   20.1096   17.1259 H         1 MOL         0.0617
     66 H25        10.1449   18.9515   16.4212 H         1 MOL         0.0617
     67 H26        12.8611   18.6418   16.2208 H         1 MOL         0.0879
     68 H27        12.9300   16.6727   18.1514 H         1 MOL         0.0436
     69 H28        10.8282   16.5509   16.5935 H         1 MOL         0.2014
     70 H29        12.3578   16.2671   16.0558 H         1 MOL         0.2014
     71 H30        10.8389   16.2800   14.2472 H         1 MOL         0.0777
     72 H31        12.0202   17.6293   14.1461 H         1 MOL         0.0777
     73 H32        10.3509   17.9390   14.7329 H         1 MOL         0.0777
     74 H33        14.9640   23.9782   15.3454 H         1 MOL         0.0449
     75 H34        13.4456   23.7244   16.2711 H         1 MOL         0.0449
     76 H35        11.8953   22.1523   15.3993 H         1 MOL         0.0557
     77 H36        11.3816   20.2356   13.9387 H         1 MOL         0.0599
     78 H37        13.2125   19.0802   12.6798 H         1 MOL         0.0559
     79 H38        15.5135   19.9451   12.9009 H         1 MOL         0.0599
     80 H39        16.0506   21.7940   14.4436 H         1 MOL         0.0557
     81 H40        23.5926   29.6636   15.2020 H         1 MOL         0.0577
     82 H41        23.6879   27.8923   14.9191 H         1 MOL         0.0577
     83 H42        23.1445   28.5195   16.5122 H         1 MOL         0.0577
@<TRIPOS>BOND
     1    2    1 ar 
     2    6    1 ar 
     3    1   40 1  
     4    3    2 ar 
     5    4    3 ar 
     6    4    5 ar 
     7    7    4 1  
     8    5    6 ar 
     9    7    8 2  
    10    7    9 2  
    11   10    7 am 
    12   10   11 1  
    13   15   10 1  
    14   11   12 1  
    15   12   13 1  
    16   12   14 1  
    17   16   15 1  
    18   16   17 1  
    19   18   16 1  
    20   18   19 1  
    21   33   18 1  
    22   19   20 am 
    23   20   21 2  
    24   20   22 1  
    25   22   23 1  
    26   23   24 1  
    27   23   30 1  
    28   24   25 1  
    29   26   25 1  
    30   26   27 1  
    31   30   26 1  
    32   28   27 1  
    33   29   28 1  
    34   30   29 1  
    35   29   31 1  
    36   31   32 1  
    37   39   33 1  
    38   34   35 ar 
    39   34   39 ar 
    40   35   36 ar 
    41   36   37 ar 
    42   37   38 ar 
    43   38   39 ar 
    44   40   41 1  
    45    2   42 1  
    46    3   43 1  
    47    5   44 1  
    48    6   45 1  
    49   11   46 1  
    50   11   47 1  
    51   12   48 1  
    52   13   49 1  
    53   13   50 1  
    54   13   51 1  
    55   14   52 1  
    56   14   53 1  
    57   14   54 1  
    58   15   55 1  
    59   15   56 1  
    60   16   57 1  
    61   17   58 1  
    62   18   59 1  
    63   19   60 1  
    64   23   61 1  
    65   24   62 1  
    66   24   63 1  
    67   26   64 1  
    68   28   65 1  
    69   28   66 1  
    70   29   67 1  
    71   30   68 1  
    72   31   69 1  
    73   31   70 1  
    74   32   71 1  
    75   32   72 1  
    76   32   73 1  
    77   33   74 1  
    78   33   75 1  
    79   34   76 1  
    80   35   77 1  
    81   36   78 1  
    82   37   79 1  
    83   38   80 1  
    84   41   81 1  
    85   41   82 1  
    86   41   83 1  
@<TRIPOS>SUBSTRUCTURE
     1 MOL         1

