### 
### Created by X-TOOL on Mon Aug  2 16:15:51 2021
### 

@<TRIPOS>MOLECULE
6ovc_ligand
   62    66     1     0     0
SMALL
GAST_HUCK


@<TRIPOS>ATOM
      1 N1        -11.7940   16.2940   13.3180 N.pl3     1 N8J        -0.3061
      2 C4        -11.0540   16.7630   12.1870 C.ar      1 N8J         0.0771
      3 C5        -11.6790   17.3870   11.1060 C.ar      1 N8J        -0.0327
      4 C6        -10.9170   17.9150   10.0530 C.ar      1 N8J         0.0281
      5 C7        -11.5980   18.5980    8.9590 C.2       1 N8J         0.2136
      6 C8         -9.5170   17.8120   10.0880 C.ar      1 N8J        -0.0636
      7 C10        -9.6540   16.6020   12.1590 C.ar      1 N8J         0.1180
      8 C15       -14.4630   18.9230   14.3030 C.3       1 N8J        -0.0484
      9 C17       -12.6730   18.6160   15.4860 C.3       1 N8J        -0.0484
     10 C21        -7.0160   14.2380   16.4220 C.ar      1 N8J        -0.0543
     11 C22        -7.7290   14.7890   15.3600 C.ar      1 N8J        -0.0562
     12 C24        -9.6070   13.3750   15.8930 C.ar      1 N8J         0.0447
     13 CL20       -6.7380   12.6360   18.5800 Cl        1 N8J        -0.0770
     14 CL25      -11.1760   12.7040   15.5580 Cl        1 N8J        -0.0770
     15 C2        -13.1510   16.8110   13.6440 C.3       1 N8J         0.0278
     16 O3         -9.0130   15.8510   13.1230 O.3       1 N8J        -0.3022
     17 C9         -8.8880   17.1680   11.1500 C.ar      1 N8J        -0.0375
     18 C11        -9.8530   14.9740   13.9340 C.3       1 N8J         0.1332
     19 C12       -10.9880   15.8650   14.4880 C.3       1 N8J         0.0650
     20 O13       -11.7110   18.1100    7.8400 O.2       1 N8J        -0.3882
     21 C14       -13.0590   18.3200   14.0040 C.3       1 N8J        -0.0217
     22 C16       -14.1920   18.6690   15.8140 C.3       1 N8J        -0.0524
     23 C18        -8.9110   12.8670   16.9880 C.ar      1 N8J        -0.0405
     24 C19        -7.6140   13.2890   17.2420 C.ar      1 N8J         0.0335
     25 C23        -9.0400   14.3770   15.0850 C.ar      1 N8J         0.0062
     26 S26       -11.9870   20.8910   10.3870 S.o2      1 N8J         0.0708
     27 O27       -11.1200   20.3200   11.3530 O.2       1 N8J        -0.1487
     28 O28       -11.5420   22.1230    9.8320 O.2       1 N8J        -0.1487
     29 N29       -12.2100   19.8090    9.1280 N.am      1 N8J        -0.1576
     30 C30       -13.6060   21.1150   11.1250 C.3       1 N8J         0.1226
     31 C31       -13.7330   22.0830   12.3020 C.ar      1 N8J        -0.0200
     32 C32       -14.8280   22.9460   12.3640 C.ar      1 N8J        -0.0587
     33 C33       -14.9910   23.8070   13.4450 C.ar      1 N8J        -0.0685
     34 C34       -14.0630   23.8100   14.4800 C.ar      1 N8J        -0.0687
     35 C35       -12.9670   22.9550   14.4280 C.ar      1 N8J        -0.0685
     36 C36       -12.8010   22.0990   13.3440 C.ar      1 N8J        -0.0587
     37 H1        -12.7599   17.4641   11.0800 H         1 N8J         0.0528
     38 H2         -8.9240   18.2354    9.2854 H         1 N8J         0.0533
     39 H3        -15.3044   18.3492   13.8873 H         1 N8J         0.0269
     40 H4        -14.5721   19.9831   14.0306 H         1 N8J         0.0269
     41 H5        -12.1394   19.5658   15.6381 H         1 N8J         0.0269
     42 H6        -12.1257   17.8037   15.9865 H         1 N8J         0.0269
     43 H7         -5.9947   14.5495   16.6088 H         1 N8J         0.0607
     44 H8         -7.2642   15.5458   14.7385 H         1 N8J         0.0558
     45 H9        -13.5593   16.2542   14.5003 H         1 N8J         0.0512
     46 H10       -13.8113   16.6815   12.7738 H         1 N8J         0.0512
     47 H11        -7.8063   17.1091   11.1884 H         1 N8J         0.0517
     48 H12       -10.2682   14.1632   13.3174 H         1 N8J         0.0835
     49 H13       -11.6119   15.2930   15.1905 H         1 N8J         0.0562
     50 H14       -10.5668   16.7417   15.0017 H         1 N8J         0.0562
     51 H15       -12.4602   18.8575   13.2540 H         1 N8J         0.0319
     52 H16       -14.6080   17.7264   16.1993 H         1 N8J         0.0265
     53 H17       -14.4866   19.4972   16.4752 H         1 N8J         0.0265
     54 H18        -9.3829   12.1421   17.6414 H         1 N8J         0.0612
     55 H19       -12.8637   20.0788    8.4210 H         1 N8J         0.2133
     56 H20       -13.9447   20.1288   11.4752 H         1 N8J         0.0686
     57 H21       -14.2794   21.4740   10.3327 H         1 N8J         0.0686
     58 H22       -15.5582   22.9456   11.5628 H         1 N8J         0.0557
     59 H23       -15.8429   24.4764   13.4800 H         1 N8J         0.0599
     60 H24       -14.1930   24.4765   15.3249 H         1 N8J         0.0559
     61 H25       -12.2413   22.9557   15.2332 H         1 N8J         0.0599
     62 H26       -11.9419   21.4389   13.3069 H         1 N8J         0.0557
@<TRIPOS>BOND
     1    2    1 1  
     2    1   15 1  
     3    1   19 1  
     4    3    2 ar 
     5    2    7 ar 
     6    4    3 ar 
     7    5    4 1  
     8    4    6 ar 
     9    5   20 2  
    10   29    5 am 
    11    6   17 ar 
    12    7   16 1  
    13   17    7 ar 
    14   21    8 1  
    15    8   22 1  
    16   21    9 1  
    17    9   22 1  
    18   11   10 ar 
    19   10   24 ar 
    20   25   11 ar 
    21   12   14 1  
    22   12   23 ar 
    23   25   12 ar 
    24   24   13 1  
    25   15   21 1  
    26   16   18 1  
    27   19   18 1  
    28   18   25 1  
    29   23   24 ar 
    30   26   27 2  
    31   26   28 2  
    32   26   29 am 
    33   26   30 1  
    34   30   31 1  
    35   31   32 ar 
    36   31   36 ar 
    37   32   33 ar 
    38   33   34 ar 
    39   34   35 ar 
    40   35   36 ar 
    41    3   37 1  
    42    6   38 1  
    43    8   39 1  
    44    8   40 1  
    45    9   41 1  
    46    9   42 1  
    47   10   43 1  
    48   11   44 1  
    49   15   45 1  
    50   15   46 1  
    51   17   47 1  
    52   18   48 1  
    53   19   49 1  
    54   19   50 1  
    55   21   51 1  
    56   22   52 1  
    57   22   53 1  
    58   23   54 1  
    59   29   55 1  
    60   30   56 1  
    61   30   57 1  
    62   32   58 1  
    63   33   59 1  
    64   34   60 1  
    65   35   61 1  
    66   36   62 1  
@<TRIPOS>SUBSTRUCTURE
     1 N8J         1

