### 
### Created by X-TOOL on Mon Aug  2 16:11:38 2021
### 

@<TRIPOS>MOLECULE
6ovz_ligand
   23    23     1     0     0
SMALL
GAST_HUCK


@<TRIPOS>ATOM
      1 CAA         1.5250  -11.6780  -32.0060 C.ar      1 N9M        -0.0685
      2 CAB         1.2690  -11.2540  -30.7020 C.ar      1 N9M        -0.0687
      3 CAC         2.3180  -11.0420  -29.8110 C.ar      1 N9M        -0.0685
      4 CAD         3.6230  -11.2720  -30.2340 C.ar      1 N9M        -0.0578
      5 CAE         3.8830  -11.7030  -31.5390 C.ar      1 N9M        -0.0130
      6 CAF         2.8350  -11.9070  -32.4300 C.ar      1 N9M        -0.0578
      7 CAG         5.2010  -11.9240  -31.9370 C.3       1 N9M         0.1112
      8 CAI         7.3780  -11.4410  -31.2560 C.2       1 N9M         0.3504
      9 CAM        10.3650   -9.7000  -31.1290 C.2       1 N9M         0.2605
     10 NAK         8.2670  -10.4450  -31.3900 N.am      1 N9M        -0.1078
     11 OAH         6.0590  -11.1350  -31.0940 O.3       1 N9M        -0.2493
     12 OAJ         7.7480  -12.6170  -31.2530 O.2       1 N9M        -0.3776
     13 OAL         9.6820  -10.7820  -31.5730 O.3       1 N9M        -0.1441
     14 OAN        11.5990   -9.6740  -31.1610 O.2       1 N9M        -0.3532
     15 H1          0.7016  -11.8306  -32.6943 H         1 N9M         0.0599
     16 H2          0.2472  -11.0885  -30.3802 H         1 N9M         0.0559
     17 H3          2.1201  -10.7021  -28.8008 H         1 N9M         0.0599
     18 H4          4.4460  -11.1158  -29.5460 H         1 N9M         0.0557
     19 H5          3.0332  -12.2401  -33.4423 H         1 N9M         0.0557
     20 H6          5.3294  -11.6221  -32.9869 H         1 N9M         0.0776
     21 H7          5.4497  -12.9901  -31.8290 H         1 N9M         0.0776
     22 H8          9.8190   -8.8423  -30.7389 H         1 N9M         0.1723
     23 H9          7.9699   -9.4905  -31.3655 H         1 N9M         0.2294
@<TRIPOS>BOND
     1    1    2 ar 
     2    6    1 ar 
     3    3    2 ar 
     4    4    3 ar 
     5    5    4 ar 
     6    5    6 ar 
     7    7    5 1  
     8   11    7 1  
     9   10    8 am 
    10    8   11 1  
    11    8   12 2  
    12   13    9 1  
    13    9   14 2  
    14   10   13 1  
    15    1   15 1  
    16    2   16 1  
    17    3   17 1  
    18    4   18 1  
    19    6   19 1  
    20    7   20 1  
    21    7   21 1  
    22    9   22 1  
    23   10   23 1  
@<TRIPOS>SUBSTRUCTURE
     1 N9M         1

