### 
### Created by X-TOOL on Mon Aug  2 16:15:51 2021
### 

@<TRIPOS>MOLECULE
6ow2_ligand
   69    72     1     0     0
SMALL
GAST_HUCK


@<TRIPOS>ATOM
      1 C11        27.4570   -3.4480    6.5190 C.3       1 NB4        -0.0283
      2 C12        26.5190   -3.9800    7.6020 C.3       1 NB4        -0.0387
      3 C13        27.1060   -5.1740    8.3680 C.3       1 NB4        -0.0501
      4 C14        26.4550   -5.1450    9.7450 C.3       1 NB4        -0.0528
      5 C01        22.7050   -6.4960    8.3610 C.3       1 NB4        -0.0051
      6 C02        22.7730   -6.5710    6.8780 C.ar      1 NB4         0.0641
      7 C04        24.0350   -6.7820    4.9910 C.ar      1 NB4         0.1610
      8 C07        26.5250   -4.9740    4.8230 C.2       1 NB4         0.2021
      9 C09        27.8010   -4.4240    5.3890 C.3       1 NB4         0.0738
     10 C15        25.9450   -3.7580    9.9820 C.3       1 NB4        -0.0528
     11 C16        26.2540   -2.9440    8.7010 C.3       1 NB4        -0.0501
     12 C17        28.5870   -3.7830    4.2520 C.3       1 NB4         0.0827
     13 C20        29.9730   -1.9630    4.9870 C.2       1 NB4         0.1950
     14 C22        22.8950   -6.7340    4.2400 C.ar      1 NB4         0.2061
     15 C24        21.6540   -6.6170    4.8810 C.ar      1 NB4         0.1418
     16 C27        19.2290   -6.1620    4.8910 C.3       1 NB4         0.0708
     17 C28        18.3610   -5.3490    3.9550 C.3       1 NB4        -0.0106
     18 C30        17.1980   -5.3710    1.8480 C.3       1 NB4        -0.0074
     19 C31        16.9790   -6.1520    0.5820 C.3       1 NB4         0.0878
     20 C33        19.0520   -7.1760    0.7550 C.3       1 NB4         0.0925
     21 C34        19.3470   -6.4390    2.0460 C.3       1 NB4         0.0239
     22 C36        20.2110   -7.2830    2.9590 C.3       1 NB4         0.0758
     23 F23        23.0040   -6.8020    2.9000 F         1 NB4        -0.1940
     24 N03        23.9840   -6.6960    6.3310 N.ar      1 NB4        -0.2731
     25 N05        25.2360   -6.9090    4.4350 N.pl3     1 NB4        -0.2029
     26 N06        26.3600   -6.2950    4.9470 N.am      1 NB4        -0.1849
     27 N18        29.8470   -3.2580    4.6970 N.am      1 NB4        -0.1497
     28 N25        21.6160   -6.5220    6.2160 N.ar      1 NB4        -0.2745
     29 N26        20.4580   -6.5570    4.2100 N.pl3     1 NB4        -0.2819
     30 N29        18.0830   -6.1290    2.7420 N.4       1 NB4         0.2435
     31 O08        25.6830   -4.2500    4.3000 O.2       1 NB4        -0.3947
     32 O19        30.9560   -4.0870    4.8530 O.3       1 NB4        -0.2684
     33 O21        30.9930   -1.4430    5.3820 O.2       1 NB4        -0.3830
     34 O32        18.2070   -6.4020   -0.0890 O.3       1 NB4        -0.3689
     35 H1         28.3980   -3.1510    7.0051 H         1 NB4         0.0296
     36 H2         26.9826   -2.5642    6.0674 H         1 NB4         0.0296
     37 H3         25.5725   -4.2715    7.1233 H         1 NB4         0.0302
     38 H4         28.1975   -5.0719    8.4583 H         1 NB4         0.0268
     39 H5         26.8672   -6.1153    7.8513 H         1 NB4         0.0268
     40 H6         27.1958   -5.4076   10.5146 H         1 NB4         0.0265
     41 H7         25.6208   -5.8612    9.7795 H         1 NB4         0.0265
     42 H8         23.7218   -6.5469    8.7777 H         1 NB4         0.0452
     43 H9         22.1093   -7.3378    8.7438 H         1 NB4         0.0452
     44 H10        22.2337   -5.5478    8.6590 H         1 NB4         0.0452
     45 H11        28.4004   -5.2451    5.8091 H         1 NB4         0.0560
     46 H12        26.4544   -3.3098   10.8478 H         1 NB4         0.0265
     47 H13        24.8606   -3.7791   10.1651 H         1 NB4         0.0265
     48 H14        25.3949   -2.3117    8.4324 H         1 NB4         0.0268
     49 H15        27.1411   -2.3118    8.8535 H         1 NB4         0.0268
     50 H16        27.9907   -2.9622    3.8269 H         1 NB4         0.0581
     51 H17        28.7723   -4.5412    3.4769 H         1 NB4         0.0581
     52 H18        29.0974   -1.3281    4.8598 H         1 NB4         0.1560
     53 H19        18.6814   -7.0622    5.2069 H         1 NB4         0.0576
     54 H20        19.4798   -5.5565    5.7744 H         1 NB4         0.0576
     55 H21        18.8853   -4.4213    3.6820 H         1 NB4         0.0835
     56 H22        17.4138   -5.1010    4.4562 H         1 NB4         0.0835
     57 H23        16.2320   -5.2007    2.3459 H         1 NB4         0.0837
     58 H24        17.6618   -4.4032    1.6066 H         1 NB4         0.0837
     59 H25        16.3174   -5.5779   -0.0834 H         1 NB4         0.0613
     60 H26        16.5046   -7.1127    0.8310 H         1 NB4         0.0613
     61 H27        18.5528   -8.1278    0.9894 H         1 NB4         0.0617
     62 H28        19.9979   -7.3774    0.2308 H         1 NB4         0.0617
     63 H29        19.8747   -5.5027    1.8119 H         1 NB4         0.0894
     64 H30        21.1697   -7.4952    2.4632 H         1 NB4         0.0579
     65 H31        19.6952   -8.2291    3.1802 H         1 NB4         0.0579
     66 H32        25.3308   -7.4886    3.5888 H         1 NB4         0.2133
     67 H33        27.0556   -6.8411    5.4137 H         1 NB4         0.2166
     68 H34        17.6292   -6.9908    3.0017 H         1 NB4         0.2039
     69 H35        31.2392   -4.0680    5.7596 H         1 NB4         0.2496
@<TRIPOS>BOND
     1    1    2 1  
     2    9    1 1  
     3    2    3 1  
     4    2   11 1  
     5    3    4 1  
     6   10    4 1  
     7    6    5 1  
     8   24    6 ar 
     9    6   28 ar 
    10    7   14 ar 
    11    7   24 ar 
    12   25    7 1  
    13    8    9 1  
    14   26    8 am 
    15    8   31 2  
    16    9   12 1  
    17   11   10 1  
    18   12   27 1  
    19   27   13 am 
    20   13   33 2  
    21   14   15 ar 
    22   14   23 1  
    23   15   28 ar 
    24   15   29 1  
    25   16   17 1  
    26   29   16 1  
    27   17   30 1  
    28   18   19 1  
    29   30   18 1  
    30   34   19 1  
    31   21   20 1  
    32   20   34 1  
    33   22   21 1  
    34   21   30 1  
    35   29   22 1  
    36   25   26 1  
    37   27   32 1  
    38    1   35 1  
    39    1   36 1  
    40    2   37 1  
    41    3   38 1  
    42    3   39 1  
    43    4   40 1  
    44    4   41 1  
    45    5   42 1  
    46    5   43 1  
    47    5   44 1  
    48    9   45 1  
    49   10   46 1  
    50   10   47 1  
    51   11   48 1  
    52   11   49 1  
    53   12   50 1  
    54   12   51 1  
    55   13   52 1  
    56   16   53 1  
    57   16   54 1  
    58   17   55 1  
    59   17   56 1  
    60   18   57 1  
    61   18   58 1  
    62   19   59 1  
    63   19   60 1  
    64   20   61 1  
    65   20   62 1  
    66   21   63 1  
    67   22   64 1  
    68   22   65 1  
    69   25   66 1  
    70   26   67 1  
    71   30   68 1  
    72   32   69 1  
@<TRIPOS>SUBSTRUCTURE
     1 NB4         1

