### 
### Created by X-TOOL on Mon Aug  2 16:15:51 2021
### 

@<TRIPOS>MOLECULE
6ow7_ligand
   59    61     1     0     0
SMALL
GAST_HUCK


@<TRIPOS>ATOM
      1 C03        15.2990   12.7530  -25.5120 C.3       1 N9Y         0.0828
      2 C04        14.3070   12.8330  -24.3480 C.3       1 N9Y         0.0768
      3 C06        14.7330   13.8330  -23.2610 C.3       1 N9Y        -0.0282
      4 C07        13.7310   14.0940  -22.1340 C.3       1 N9Y        -0.0386
      5 C08        13.0710   12.8290  -21.5950 C.3       1 N9Y        -0.0501
      6 C09        12.6070   13.1970  -20.1980 C.3       1 N9Y        -0.0528
      7 C10        13.5640   14.2300  -19.6930 C.3       1 N9Y        -0.0528
      8 C11        14.3860   14.7130  -20.8930 C.3       1 N9Y        -0.0501
      9 C12        12.9960   13.2860  -24.9630 C.2       1 N9Y         0.2235
     10 C16        12.0090   10.1390  -25.7690 C.3       1 N9Y        -0.0093
     11 C17        10.7220   10.3620  -26.5210 C.3       1 N9Y        -0.0074
     12 C18         9.8940   11.5060  -25.8920 C.3       1 N9Y        -0.0020
     13 C19        10.7290   12.7680  -25.7190 C.3       1 N9Y         0.1778
     14 C21         9.9830   13.8920  -25.0410 C.2       1 N9Y         0.2386
     15 C24         8.6260   15.8800  -25.6430 C.ar      1 N9Y         0.1391
     16 C25         8.1750   16.2390  -24.3730 C.ar      1 N9Y        -0.0131
     17 C26         7.4600   17.4170  -24.2510 C.ar      1 N9Y        -0.0563
     18 C27         7.2260   18.1990  -25.3630 C.ar      1 N9Y        -0.0504
     19 C28         7.7220   17.7680  -26.5730 C.ar      1 N9Y        -0.0071
     20 C30        17.6830   13.0610  -24.8570 C.2       1 N9Y         0.1950
     21 N02        16.6090   12.3160  -25.1180 N.am      1 N9Y        -0.1497
     22 N14        11.9930   12.3960  -25.0670 N.am      1 N9Y        -0.2192
     23 N15        12.1780   11.0600  -24.6370 N.4       1 N9Y         0.3689
     24 N23         9.3680   14.7250  -25.9100 N.am      1 N9Y        -0.2159
     25 N29         8.4180   16.6340  -26.7290 N.ar      1 N9Y        -0.2850
     26 O01        16.7070   10.9480  -24.9420 O.3       1 N9Y        -0.2684
     27 O13        12.8640   14.4260  -25.3510 O.2       1 N9Y        -0.3915
     28 O22         9.9720   14.0120  -23.8200 O.2       1 N9Y        -0.3800
     29 O31        18.7420   12.6230  -24.4650 O.2       1 N9Y        -0.3830
     30 H1         15.3864   13.7518  -25.9645 H         1 N9Y         0.0581
     31 H2         14.9055   12.0460  -26.2572 H         1 N9Y         0.0581
     32 H3         14.1925   11.8388  -23.8914 H         1 N9Y         0.0561
     33 H4         14.9368   14.7947  -23.7546 H         1 N9Y         0.0296
     34 H5         15.6579   13.4528  -22.8027 H         1 N9Y         0.0296
     35 H6         12.9586   14.7734  -22.5236 H         1 N9Y         0.0302
     36 H7         13.7941   12.0009  -21.5572 H         1 N9Y         0.0268
     37 H8         12.2157   12.5405  -22.2236 H         1 N9Y         0.0268
     38 H9         12.6243   12.3114  -19.5458 H         1 N9Y         0.0265
     39 H10        11.5871   13.6076  -20.2318 H         1 N9Y         0.0265
     40 H11        14.2279   13.7897  -18.9344 H         1 N9Y         0.0265
     41 H12        13.0109   15.0723  -19.2518 H         1 N9Y         0.0265
     42 H13        14.3611   15.8109  -20.9557 H         1 N9Y         0.0268
     43 H14        15.4287   14.3744  -20.8026 H         1 N9Y         0.0268
     44 H15        12.8501   10.2793  -26.4639 H         1 N9Y         0.0821
     45 H16        12.0175    9.1077  -25.3864 H         1 N9Y         0.0821
     46 H17        10.1287    9.4360  -26.4981 H         1 N9Y         0.0319
     47 H18        10.9568   10.6214  -27.5639 H         1 N9Y         0.0319
     48 H19         9.5271   11.1821  -24.9069 H         1 N9Y         0.0316
     49 H20         9.0387   11.7301  -26.5464 H         1 N9Y         0.0316
     50 H21        10.9806   13.1336  -26.7255 H         1 N9Y         0.0860
     51 H22         8.3781   15.6154  -23.5099 H         1 N9Y         0.0598
     52 H23         7.0839   17.7253  -23.2822 H         1 N9Y         0.0691
     53 H24         6.6682   19.1253  -25.2865 H         1 N9Y         0.0578
     54 H25         7.5391   18.3806  -27.4484 H         1 N9Y         0.0774
     55 H26        17.6029   14.1367  -25.0064 H         1 N9Y         0.1560
     56 H27        13.1066   10.9569  -24.2587 H         1 N9Y         0.2278
     57 H28        11.4988   10.8416  -23.9249 H         1 N9Y         0.2278
     58 H29         9.4556   14.4821  -26.8761 H         1 N9Y         0.2312
     59 H30        16.9226   10.7611  -24.0359 H         1 N9Y         0.2496
@<TRIPOS>BOND
     1    2    1 1  
     2    1   21 1  
     3    2    3 1  
     4    9    2 1  
     5    3    4 1  
     6    4    5 1  
     7    4    8 1  
     8    5    6 1  
     9    7    6 1  
    10    8    7 1  
    11   22    9 am 
    12    9   27 2  
    13   11   10 1  
    14   10   23 1  
    15   12   11 1  
    16   13   12 1  
    17   14   13 1  
    18   13   22 1  
    19   24   14 am 
    20   14   28 2  
    21   15   16 ar 
    22   15   24 1  
    23   15   25 ar 
    24   16   17 ar 
    25   17   18 ar 
    26   18   19 ar 
    27   19   25 ar 
    28   21   20 am 
    29   20   29 2  
    30   21   26 1  
    31   22   23 1  
    32    1   30 1  
    33    1   31 1  
    34    2   32 1  
    35    3   33 1  
    36    3   34 1  
    37    4   35 1  
    38    5   36 1  
    39    5   37 1  
    40    6   38 1  
    41    6   39 1  
    42    7   40 1  
    43    7   41 1  
    44    8   42 1  
    45    8   43 1  
    46   10   44 1  
    47   10   45 1  
    48   11   46 1  
    49   11   47 1  
    50   12   48 1  
    51   12   49 1  
    52   13   50 1  
    53   16   51 1  
    54   17   52 1  
    55   18   53 1  
    56   19   54 1  
    57   20   55 1  
    58   23   56 1  
    59   23   57 1  
    60   24   58 1  
    61   26   59 1  
@<TRIPOS>SUBSTRUCTURE
     1 N9Y         1

