### 
### Created by X-TOOL on Mon Aug  2 16:11:05 2021
### 

@<TRIPOS>MOLECULE
6ox0_ligand
   51    53     1     0     0
SMALL
GAST_HUCK


@<TRIPOS>ATOM
      1 N           4.4130    9.0900   16.8130 N.4       1 SFG         0.2327
      2 CA          3.9040    8.3430   15.7030 C.3       1 SFG         0.0285
      3 C           4.0000    9.1900   14.4570 C.2       1 SFG         0.0844
      4 O           3.4860    8.7830   13.3590 O.co2     1 SFG        -0.5643
      5 OXT         4.5950   10.3020   14.4970 O.co2     1 SFG        -0.5643
      6 CB          2.4320    7.8960   15.9510 C.3       1 SFG         0.0075
      7 CG          2.3740    6.5680   16.6920 C.3       1 SFG        -0.0030
      8 CD          3.1270    5.5020   15.8840 C.3       1 SFG        -0.0216
      9 NE          2.1740    4.6410   15.2280 N.4       1 SFG         0.2208
     10 C5'         4.0680    4.6940   16.7790 C.3       1 SFG         0.0191
     11 C4'         5.4150    5.3630   16.9840 C.3       1 SFG         0.0957
     12 O4'         5.2600    6.4750   17.8940 O.3       1 SFG        -0.3389
     13 C3'         6.4090    4.4880   17.7040 C.3       1 SFG         0.1126
     14 O3'         7.2120    3.7840   16.7590 O.3       1 SFG        -0.3865
     15 C2'         7.2210    5.5750   18.4660 C.3       1 SFG         0.1384
     16 O2'         8.2190    6.1100   17.5880 O.3       1 SFG        -0.3836
     17 C1'         6.3760    6.5160   18.7630 C.3       1 SFG         0.2009
     18 N9          5.8870    6.4240   20.1780 N.pl3     1 SFG        -0.1919
     19 C8          4.6900    5.9820   20.5670 C.2       1 SFG         0.1123
     20 N7          4.5740    6.0550   21.9160 N.2       1 SFG        -0.2958
     21 C5          5.7200    6.5580   22.3670 C.ar      1 SFG         0.1045
     22 C6          6.1660    6.8520   23.6590 C.ar      1 SFG         0.1298
     23 N6          5.3780    6.6310   24.7190 N.pl3     1 SFG        -0.3152
     24 N1          7.3630    7.3530   23.8570 N.ar      1 SFG        -0.2698
     25 C2          8.1180    7.5610   22.7500 C.ar      1 SFG         0.0533
     26 N3          7.7940    7.3170   21.4740 N.ar      1 SFG        -0.2714
     27 C4          6.5610    6.8030   21.2810 C.ar      1 SFG         0.1613
     28 H1          4.3526    8.5314   17.6499 H         1 SFG         0.2010
     29 H2          3.8691    9.9305   16.9301 H         1 SFG         0.2010
     30 H3          5.3757    9.3340   16.6407 H         1 SFG         0.2010
     31 H4          4.5223    7.4430   15.5695 H         1 SFG         0.1024
     32 H5          1.9224    7.7881   14.9822 H         1 SFG         0.0340
     33 H6          1.9208    8.6634   16.5508 H         1 SFG         0.0340
     34 H7          1.3247    6.2619   16.8157 H         1 SFG         0.0323
     35 H8          2.8428    6.6784   17.6809 H         1 SFG         0.0323
     36 H9          3.7313    6.0066   15.1158 H         1 SFG         0.0851
     37 H10         2.6653    3.9396   14.6963 H         1 SFG         0.1997
     38 H11         1.5968    5.1886   14.6091 H         1 SFG         0.1997
     39 H12         1.5939    4.1930   15.9200 H         1 SFG         0.1997
     40 H13         4.2327    3.7100   16.3158 H         1 SFG         0.0346
     41 H14         3.5898    4.5617   17.7607 H         1 SFG         0.0346
     42 H15         5.8143    5.6880   16.0119 H         1 SFG         0.0626
     43 H16         5.9245    3.7781   18.3906 H         1 SFG         0.0647
     44 H17         7.8351    3.2355   17.2209 H         1 SFG         0.2100
     45 H18         7.6860    5.1594   19.3721 H         1 SFG         0.0676
     46 H19         8.7192    6.7748   18.0466 H         1 SFG         0.2101
     47 H20         6.8865    7.4821   18.6361 H         1 SFG         0.0996
     48 H21         3.9152    5.6144   19.8958 H         1 SFG         0.1349
     49 H22         5.7160    6.8510   25.6668 H         1 SFG         0.1820
     50 H23         4.4339    6.2410   24.5865 H         1 SFG         0.1820
     51 H24         9.1052    7.9758   22.9189 H         1 SFG         0.0996
@<TRIPOS>BOND
     1    1    2 1  
     2    2    3 1  
     3    2    6 1  
     4    3    4 ar 
     5    3    5 ar 
     6    6    7 1  
     7    7    8 1  
     8    8    9 1  
     9    8   10 1  
    10   10   11 1  
    11   11   12 1  
    12   11   13 1  
    13   12   17 1  
    14   13   14 1  
    15   13   15 1  
    16   15   16 1  
    17   15   17 1  
    18   17   18 1  
    19   18   19 1  
    20   18   27 1  
    21   19   20 2  
    22   20   21 1  
    23   21   22 ar 
    24   21   27 ar 
    25   22   23 1  
    26   22   24 ar 
    27   24   25 ar 
    28   25   26 ar 
    29   26   27 ar 
    30    1   28 1  
    31    1   29 1  
    32    1   30 1  
    33    2   31 1  
    34    6   32 1  
    35    6   33 1  
    36    7   34 1  
    37    7   35 1  
    38    8   36 1  
    39    9   37 1  
    40    9   38 1  
    41    9   39 1  
    42   10   40 1  
    43   10   41 1  
    44   11   42 1  
    45   13   43 1  
    46   14   44 1  
    47   15   45 1  
    48   16   46 1  
    49   17   47 1  
    50   19   48 1  
    51   23   49 1  
    52   23   50 1  
    53   25   51 1  
@<TRIPOS>SUBSTRUCTURE
     1 SFG         1

