### 
### Created by X-TOOL on Mon Aug  2 16:15:52 2021
### 

@<TRIPOS>MOLECULE
6oxl_ligand
   73    72     1     0     0
SMALL
GAST_HUCK


@<TRIPOS>ATOM
      1 N         154.1220  194.8000  125.3590 N.4       1 UNK         0.2377
      2 CA        153.0950  194.5010  126.3480 C.3       1 UNK         0.0621
      3 C         153.3550  195.2820  127.6190 C.2       1 UNK         0.2264
      4 O         154.3120  196.0460  127.6840 O.2       1 UNK        -0.3907
      5 CB        153.0490  193.0050  126.6490 C.3       1 UNK        -0.0040
      6 N         152.5120  195.0800  128.6250 N.am      1 UNK        -0.2613
      7 CA        152.6370  195.7980  129.8870 C.3       1 UNK         0.1283
      8 C         151.9570  195.0530  131.0300 C.2       1 UNK         0.2036
      9 O         150.7510  195.1670  131.2290 O.2       1 UNK        -0.3944
     10 CB        152.0500  197.2060  129.7680 C.3       1 UNK        -0.0244
     11 N         152.7400  194.2970  131.7870 N.am      1 UNK        -0.2640
     12 CA        152.2110  193.5500  132.9130 C.3       1 UNK         0.1282
     13 C         151.9180  194.4750  134.0780 C.2       1 UNK         0.2036
     14 O         152.7320  194.5830  134.9870 O.2       1 UNK        -0.3944
     15 CB        153.1970  192.4670  133.3450 C.3       1 UNK        -0.0244
     16 N         150.7630  195.1280  134.0550 N.am      1 UNK        -0.2640
     17 CA        150.3820  196.0470  135.1220 C.3       1 UNK         0.1282
     18 C         150.0900  195.3030  136.4170 C.2       1 UNK         0.2036
     19 O         148.9350  195.0180  136.7200 O.2       1 UNK        -0.3944
     20 CB        149.1630  196.8700  134.7100 C.3       1 UNK        -0.0244
     21 N         151.1450  194.9980  137.1680 N.am      1 UNK        -0.2640
     22 CA        151.0370  194.2750  138.4310 C.3       1 UNK         0.1282
     23 C         150.3230  195.1060  139.4790 C.2       1 UNK         0.2036
     24 O         150.3130  196.3270  139.4000 O.2       1 UNK        -0.3944
     25 CB        152.4210  193.8790  138.9420 C.3       1 UNK        -0.0244
     26 N         149.7230  194.4440  140.4580 N.am      1 UNK        -0.2640
     27 CA        148.9440  195.1370  141.4680 C.3       1 UNK         0.1282
     28 C         149.5650  194.9710  142.8440 C.2       1 UNK         0.2031
     29 O         150.3390  194.0440  143.0820 O.2       1 UNK        -0.3944
     30 CB        147.5030  194.6300  141.4740 C.3       1 UNK        -0.0244
     31 N         149.2190  195.8800  143.7480 N.am      1 UNK        -0.2698
     32 CA        149.7480  195.8570  145.1030 C.3       1 UNK         0.0916
     33 C         148.6220  195.8780  146.1290 C.2       1 UNK         0.0598
     34 O         147.4980  196.2750  145.8210 O.co2     1 UNK        -0.5666
     35 CB        150.6840  197.0430  145.3290 C.3       1 UNK        -0.0300
     36 OXT       148.8400  195.4960  147.2780 O.co2     1 UNK        -0.5666
     37 H1        153.9406  194.2759  124.5173 H         1 UNK         0.2015
     38 H2        155.0257  194.5449  125.7254 H         1 UNK         0.2015
     39 H3        154.1103  195.7860  125.1500 H         1 UNK         0.2015
     40 H4        152.1192  194.8052  125.9414 H         1 UNK         0.1095
     41 H5        152.2674  192.8053  127.3968 H         1 UNK         0.0310
     42 H6        154.0237  192.6798  127.0416 H         1 UNK         0.0310
     43 H7        152.8226  192.4519  125.7255 H         1 UNK         0.0310
     44 H8        151.7714  194.4173  128.5136 H         1 UNK         0.1884
     45 H9        153.7076  195.8867  130.1233 H         1 UNK         0.0797
     46 H10       152.1546  197.7293  130.7299 H         1 UNK         0.0277
     47 H11       150.9849  197.1379  129.5016 H         1 UNK         0.0277
     48 H12       152.5885  197.7630  128.9871 H         1 UNK         0.0277
     49 H13       153.7162  194.2403  131.5775 H         1 UNK         0.1883
     50 H14       151.2723  193.0679  132.6024 H         1 UNK         0.0797
     51 H15       152.7807  191.9114  134.1982 H         1 UNK         0.0277
     52 H16       154.1482  192.9338  133.6405 H         1 UNK         0.0277
     53 H17       153.3724  191.7756  132.5076 H         1 UNK         0.0277
     54 H18       150.1382  194.9866  133.2871 H         1 UNK         0.1883
     55 H19       151.2225  196.7339  135.2999 H         1 UNK         0.0797
     56 H20       148.8910  197.5560  135.5258 H         1 UNK         0.0277
     57 H21       148.3191  196.1961  134.5010 H         1 UNK         0.0277
     58 H22       149.4009  197.4507  133.8066 H         1 UNK         0.0277
     59 H23       152.0523  195.2766  136.8530 H         1 UNK         0.1883
     60 H24       150.4531  193.3594  138.2557 H         1 UNK         0.0797
     61 H25       152.3191  193.3360  139.8932 H         1 UNK         0.0277
     62 H26       153.0265  194.7838  139.0994 H         1 UNK         0.0277
     63 H27       152.9140  193.2320  138.2015 H         1 UNK         0.0277
     64 H28       149.8085  193.4486  140.5017 H         1 UNK         0.1883
     65 H29       148.9341  196.2087  141.2203 H         1 UNK         0.0797
     66 H30       146.9290  195.1658  142.2444 H         1 UNK         0.0277
     67 H31       147.4944  193.5522  141.6937 H         1 UNK         0.0277
     68 H32       147.0479  194.8070  140.4883 H         1 UNK         0.0277
     69 H33       148.5762  196.6012  143.4899 H         1 UNK         0.1875
     70 H34       150.3219  194.9280  145.2353 H         1 UNK         0.0723
     71 H35       151.0748  197.0110  146.3567 H         1 UNK         0.0270
     72 H36       150.1305  197.9812  145.1763 H         1 UNK         0.0270
     73 H37       151.5207  196.9908  144.6168 H         1 UNK         0.0270
@<TRIPOS>BOND
     1    1    2 1  
     2    2    3 1  
     3    2    5 1  
     4    3    4 2  
     5    3    6 am 
     6    6    7 1  
     7    7    8 1  
     8    7   10 1  
     9    8    9 2  
    10    8   11 am 
    11   11   12 1  
    12   12   13 1  
    13   12   15 1  
    14   13   14 2  
    15   13   16 am 
    16   16   17 1  
    17   17   18 1  
    18   17   20 1  
    19   18   19 2  
    20   18   21 am 
    21   21   22 1  
    22   22   23 1  
    23   22   25 1  
    24   23   24 2  
    25   23   26 am 
    26   26   27 1  
    27   27   28 1  
    28   27   30 1  
    29   28   29 2  
    30   28   31 am 
    31   31   32 1  
    32   32   33 1  
    33   32   35 1  
    34   33   34 ar 
    35   33   36 ar 
    36    1   37 1  
    37    1   38 1  
    38    1   39 1  
    39    2   40 1  
    40    5   41 1  
    41    5   42 1  
    42    5   43 1  
    43    6   44 1  
    44    7   45 1  
    45   10   46 1  
    46   10   47 1  
    47   10   48 1  
    48   11   49 1  
    49   12   50 1  
    50   15   51 1  
    51   15   52 1  
    52   15   53 1  
    53   16   54 1  
    54   17   55 1  
    55   20   56 1  
    56   20   57 1  
    57   20   58 1  
    58   21   59 1  
    59   22   60 1  
    60   25   61 1  
    61   25   62 1  
    62   25   63 1  
    63   26   64 1  
    64   27   65 1  
    65   30   66 1  
    66   30   67 1  
    67   30   68 1  
    68   31   69 1  
    69   32   70 1  
    70   35   71 1  
    71   35   72 1  
    72   35   73 1  
@<TRIPOS>SUBSTRUCTURE
     1 UNK         1

