### 
### Created by X-TOOL on Mon Aug  2 16:15:52 2021
### 

@<TRIPOS>MOLECULE
6oxp_ligand
   80    83     1     0     0
SMALL
GAST_HUCK


@<TRIPOS>ATOM
      1 C1         65.5930   50.9480   12.8380 C.3       1 K2A         0.0782
      2 O1         66.0940   51.0040   11.5390 O.3       1 K2A        -0.3825
      3 C2         66.4830   51.8520   13.6660 C.ar      1 K2A        -0.0177
      4 C3         67.5960   51.2350   14.4970 C.ar      1 K2A        -0.0563
      5 C4         68.4940   52.1360   15.3180 C.ar      1 K2A        -0.0419
      6 C5         68.2570   53.6320   15.2710 C.ar      1 K2A         0.1013
      7 C6         67.1530   54.2650   14.4410 C.ar      1 K2A        -0.0419
      8 C7         66.2590   53.3580   13.6190 C.ar      1 K2A        -0.0563
      9 S8         69.3320   54.6790   16.2460 S.o2      1 K2A         0.0676
     10 O9         68.5520   55.7430   16.8730 O.2       1 K2A        -0.1510
     11 O10        69.9160   53.9160   17.3520 O.2       1 K2A        -0.1510
     12 N11        70.5270   55.2900   15.1970 N.am      1 K2A        -0.2320
     13 C12        71.2470   54.2600   14.4620 C.3       1 K2A         0.0322
     14 C13        72.7460   54.5370   14.4880 C.3       1 K2A        -0.0270
     15 C14        73.2660   54.4970   15.9240 C.3       1 K2A        -0.0610
     16 C15        73.4500   53.4880   13.6230 C.3       1 K2A        -0.0518
     17 C16        70.2060   56.5380   14.5320 C.3       1 K2A         0.0578
     18 C17        71.0960   57.6580   15.0680 C.3       1 K2A         0.0967
     19 C18        73.3660   52.0900   14.2320 C.3       1 K2A        -0.0650
     20 O18        70.9730   58.7800   14.2420 O.3       1 K2A        -0.3877
     21 C19        70.7090   58.0390   16.4980 C.3       1 K2A         0.0807
     22 N20        71.6740   59.0000   16.9790 N.am      1 K2A        -0.2550
     23 C21        72.6740   58.6600   17.9560 C.2       1 K2A         0.3203
     24 O22        72.6970   57.5970   18.5020 O.2       1 K2A        -0.3775
     25 O23        73.6070   59.6760   18.1920 O.3       1 K2A        -0.2578
     26 C24        74.5410   59.5530   19.3480 C.3       1 K2A         0.1189
     27 C25        75.6440   59.9190   18.9820 C.3       1 K2A         0.0815
     28 O26        75.5110   61.4370   18.9370 O.3       1 K2A        -0.3480
     29 C27        74.5700   61.7370   20.0740 C.3       1 K2A         0.1648
     30 O28        73.3050   62.6500   19.5360 O.3       1 K2A        -0.3509
     31 C29        72.2390   61.9200   19.5730 C.3       1 K2A         0.0512
     32 C30        72.5400   60.8090   20.5480 C.3       1 K2A        -0.0191
     33 C31        74.1150   60.6440   20.4750 C.3       1 K2A         0.0449
     34 C32        69.3420   58.7140   16.5670 C.3       1 K2A         0.0064
     35 C33        68.7860   58.1900   19.0970 C.ar      1 K2A        -0.0603
     36 C34        68.5690   58.6650   20.5310 C.ar      1 K2A        -0.0686
     37 C35        68.6910   60.1480   20.8660 C.ar      1 K2A        -0.0687
     38 C36        69.0280   61.1510   19.7680 C.ar      1 K2A        -0.0686
     39 C37        69.2450   60.6740   18.3350 C.ar      1 K2A        -0.0603
     40 C38        69.1190   59.1950   18.0010 C.ar      1 K2A        -0.0408
     41 H1         65.6339   49.9172   13.2197 H         1 K2A         0.0721
     42 H2         64.5537   51.3074   12.8630 H         1 K2A         0.0721
     43 H3         65.5681   50.4503   10.9738 H         1 K2A         0.2126
     44 H4         67.7453   50.1613   14.5018 H         1 K2A         0.0558
     45 H5         69.2891   51.7200   15.9262 H         1 K2A         0.0619
     46 H6         67.0082   55.3393   14.4368 H         1 K2A         0.0619
     47 H7         65.4696   53.7761   13.0050 H         1 K2A         0.0558
     48 H8         70.8987   54.2489   13.4187 H         1 K2A         0.0481
     49 H9         71.0514   53.2812   14.9243 H         1 K2A         0.0481
     50 H10        72.9375   55.5362   14.0697 H         1 K2A         0.0314
     51 H11        74.3474   54.6982   15.9281 H         1 K2A         0.0233
     52 H12        73.0764   53.5029   16.3551 H         1 K2A         0.0233
     53 H13        72.7486   55.2611   16.5228 H         1 K2A         0.0233
     54 H14        74.5091   53.7666   13.5195 H         1 K2A         0.0266
     55 H15        72.9765   53.4713   12.6303 H         1 K2A         0.0266
     56 H16        69.1515   56.7896   14.7183 H         1 K2A         0.0504
     57 H17        70.3710   56.4275   13.4501 H         1 K2A         0.0504
     58 H18        72.1413   57.3155   15.0618 H         1 K2A         0.0634
     59 H19        73.8838   51.3733   13.5776 H         1 K2A         0.0230
     60 H20        72.3106   51.7972   14.3339 H         1 K2A         0.0230
     61 H21        73.8432   52.0925   15.2231 H         1 K2A         0.0230
     62 H22        71.2422   58.5533   13.3596 H         1 K2A         0.2100
     63 H23        70.7107   57.1392   17.1307 H         1 K2A         0.0604
     64 H24        71.6462   59.9333   16.6209 H         1 K2A         0.1873
     65 H25        74.5529   58.5278   19.7466 H         1 K2A         0.0675
     66 H26        75.8838   59.5146   17.9876 H         1 K2A         0.0590
     67 H27        76.4194   59.6123   19.6994 H         1 K2A         0.0590
     68 H28        75.1004   62.2604   20.8832 H         1 K2A         0.0913
     69 H29        72.0215   61.5077   18.5767 H         1 K2A         0.0561
     70 H30        71.3798   62.5128   19.9201 H         1 K2A         0.0561
     71 H31        72.0359   59.8787   20.2472 H         1 K2A         0.0293
     72 H32        72.2234   61.0855   21.5645 H         1 K2A         0.0293
     73 H33        74.5219   60.3688   21.4592 H         1 K2A         0.0380
     74 H34        68.5572   57.9951   16.2891 H         1 K2A         0.0449
     75 H35        69.3147   59.5712   15.8782 H         1 K2A         0.0449
     76 H36        68.7031   57.1360   18.8577 H         1 K2A         0.0557
     77 H37        68.3287   57.9501   21.3096 H         1 K2A         0.0599
     78 H38        68.5383   60.4886   21.8837 H         1 K2A         0.0559
     79 H39        69.1136   62.2051   20.0060 H         1 K2A         0.0599
     80 H40        69.4885   61.3876   17.5562 H         1 K2A         0.0557
@<TRIPOS>BOND
     1    1    2 1  
     2    3    1 1  
     3    4    3 ar 
     4    8    3 ar 
     5    5    4 ar 
     6    6    5 ar 
     7    6    7 ar 
     8    9    6 1  
     9    7    8 ar 
    10    9   10 2  
    11    9   11 2  
    12   12    9 am 
    13   12   13 1  
    14   17   12 1  
    15   13   14 1  
    16   14   15 1  
    17   14   16 1  
    18   16   19 1  
    19   18   17 1  
    20   18   20 1  
    21   21   18 1  
    22   21   22 1  
    23   34   21 1  
    24   22   23 am 
    25   23   24 2  
    26   23   25 1  
    27   25   26 1  
    28   26   27 1  
    29   26   33 1  
    30   27   28 1  
    31   29   28 1  
    32   29   30 1  
    33   33   29 1  
    34   31   30 1  
    35   32   31 1  
    36   33   32 1  
    37   40   34 1  
    38   35   36 ar 
    39   35   40 ar 
    40   36   37 ar 
    41   37   38 ar 
    42   38   39 ar 
    43   39   40 ar 
    44    1   41 1  
    45    1   42 1  
    46    2   43 1  
    47    4   44 1  
    48    5   45 1  
    49    7   46 1  
    50    8   47 1  
    51   13   48 1  
    52   13   49 1  
    53   14   50 1  
    54   15   51 1  
    55   15   52 1  
    56   15   53 1  
    57   16   54 1  
    58   16   55 1  
    59   17   56 1  
    60   17   57 1  
    61   18   58 1  
    62   19   59 1  
    63   19   60 1  
    64   19   61 1  
    65   20   62 1  
    66   21   63 1  
    67   22   64 1  
    68   26   65 1  
    69   27   66 1  
    70   27   67 1  
    71   29   68 1  
    72   31   69 1  
    73   31   70 1  
    74   32   71 1  
    75   32   72 1  
    76   33   73 1  
    77   34   74 1  
    78   34   75 1  
    79   35   76 1  
    80   36   77 1  
    81   37   78 1  
    82   38   79 1  
    83   39   80 1  
@<TRIPOS>SUBSTRUCTURE
     1 K2A         1

