### 
### Created by X-TOOL on Mon Aug  2 16:15:52 2021
### 

@<TRIPOS>MOLECULE
6oxq_ligand
   83    86     1     0     0
SMALL
GAST_HUCK


@<TRIPOS>ATOM
      1 C1         65.1720   51.2710   12.8400 C.3       1 F53         0.0782
      2 O1         65.7250   51.2780   11.5570 O.3       1 F53        -0.3825
      3 C2         66.1050   52.1340   13.6930 C.ar      1 F53        -0.0177
      4 C3         67.2760   51.4630   14.4270 C.ar      1 F53        -0.0563
      5 C4         68.2230   52.3220   15.2710 C.ar      1 F53        -0.0419
      6 C5         67.9750   53.8290   15.3470 C.ar      1 F53         0.1013
      7 C6         66.8220   54.5120   14.6080 C.ar      1 F53        -0.0419
      8 C7         65.8730   53.6500   13.7670 C.ar      1 F53        -0.0563
      9 O8         73.5780   62.7030   19.7150 O.3       1 F53        -0.3509
     10 S8         69.1180   54.8400   16.3430 S.o2      1 F53         0.0676
     11 O9         68.4070   55.9150   17.0240 O.2       1 F53        -0.1510
     12 O10        69.7320   54.0090   17.3880 O.2       1 F53        -0.1510
     13 N11        70.3090   55.4600   15.2330 N.am      1 F53        -0.2320
     14 C12        70.9620   54.4050   14.3910 C.3       1 F53         0.0324
     15 C13        72.5310   54.4970   14.5210 C.3       1 F53        -0.0244
     16 C14        73.1950   53.4450   13.5970 C.3       1 F53        -0.0516
     17 C15        72.9210   54.3060   16.0070 C.3       1 F53        -0.0516
     18 C16        69.9480   56.7480   14.5820 C.3       1 F53         0.0578
     19 C17        70.8900   57.8450   15.1210 C.3       1 F53         0.0967
     20 C18        74.4340   54.4020   16.1820 C.3       1 F53        -0.0650
     21 O18        70.7900   58.9800   14.3440 O.3       1 F53        -0.3877
     22 C19        70.5330   58.1830   16.5830 C.3       1 F53         0.0807
     23 C20        72.8550   51.9960   14.0120 C.3       1 F53        -0.0650
     24 N20        71.5330   59.0990   17.0660 N.am      1 F53        -0.2550
     25 C21        72.5180   58.7070   18.0840 C.2       1 F53         0.3203
     26 O22        72.5090   57.6450   18.6250 O.2       1 F53        -0.3775
     27 O23        73.4820   59.7070   18.3790 O.3       1 F53        -0.2578
     28 C24        74.2520   59.5560   19.5790 C.3       1 F53         0.1189
     29 C25        75.7020   60.0910   19.2000 C.3       1 F53         0.0815
     30 O26        75.4100   61.6560   19.1240 O.3       1 F53        -0.3480
     31 C27        74.5290   61.9030   20.1210 C.3       1 F53         0.1648
     32 C29        72.1980   61.8530   19.7320 C.3       1 F53         0.0512
     33 C30        72.5100   60.6200   20.6270 C.3       1 F53        -0.0191
     34 C31        73.8500   60.4170   20.5520 C.3       1 F53         0.0449
     35 C32        69.1960   58.9140   16.6860 C.3       1 F53         0.0064
     36 C33        68.6390   58.2880   19.2180 C.ar      1 F53        -0.0603
     37 C34        68.4340   58.6930   20.6850 C.ar      1 F53        -0.0686
     38 C35        68.5900   60.1600   21.1010 C.ar      1 F53        -0.0687
     39 C36        68.9480   61.2200   20.0560 C.ar      1 F53        -0.0686
     40 C37        69.1500   60.8180   18.5960 C.ar      1 F53        -0.0603
     41 C38        68.9920   59.3430   18.1750 C.ar      1 F53        -0.0408
     42 H1         65.1297   50.2451   13.2347 H         1 F53         0.0721
     43 H2         64.1592   51.6999   12.8243 H         1 F53         0.0721
     44 H3         65.1845   50.7540   10.9775 H         1 F53         0.2126
     45 H4         67.4306   50.3929   14.3485 H         1 F53         0.0558
     46 H5         69.0522   51.8706   15.8036 H         1 F53         0.0619
     47 H6         66.6790   55.5843   14.6778 H         1 F53         0.0619
     48 H7         65.0481   54.1054   13.2311 H         1 F53         0.0558
     49 H8         70.6756   54.5511   13.3390 H         1 F53         0.0481
     50 H9         70.6273   53.4128   14.7278 H         1 F53         0.0481
     51 H10        72.8597   55.4963   14.1995 H         1 F53         0.0316
     52 H11        74.2862   53.5772   13.6386 H         1 F53         0.0266
     53 H12        72.8448   53.6085   12.5671 H         1 F53         0.0266
     54 H13        72.5800   53.3167   16.3460 H         1 F53         0.0266
     55 H14        72.4370   55.0875   16.6111 H         1 F53         0.0266
     56 H15        68.9048   57.0046   14.8185 H         1 F53         0.0504
     57 H16        70.0658   56.6595   13.4919 H         1 F53         0.0504
     58 H17        71.9253   57.4753   15.0824 H         1 F53         0.0634
     59 H18        74.6899   54.2638   17.2429 H         1 F53         0.0230
     60 H19        74.7798   55.3911   15.8473 H         1 F53         0.0230
     61 H20        74.9229   53.6203   15.5821 H         1 F53         0.0230
     62 H21        71.0325   58.7723   13.4493 H         1 F53         0.2100
     63 H22        70.5113   57.2643   17.1876 H         1 F53         0.0604
     64 H23        73.3496   51.2925   13.3261 H         1 F53         0.0230
     65 H24        71.7660   51.8476   13.9669 H         1 F53         0.0230
     66 H25        73.2074   51.8162   15.0384 H         1 F53         0.0230
     67 H26        71.5582   60.0286   16.6984 H         1 F53         0.1873
     68 H27        74.2507   58.5135   19.9300 H         1 F53         0.0675
     69 H28        76.0442   59.6925   18.2336 H         1 F53         0.0590
     70 H29        76.4416   59.8513   19.9781 H         1 F53         0.0590
     71 H30        75.0480   62.3522   20.9806 H         1 F53         0.0913
     72 H31        71.9244   61.5357   18.7149 H         1 F53         0.0561
     73 H32        71.3798   62.4488   20.1628 H         1 F53         0.0561
     74 H33        71.9707   59.7357   20.2567 H         1 F53         0.0293
     75 H34        72.2140   60.8211   21.6672 H         1 F53         0.0293
     76 H35        74.2218   60.0717   21.5280 H         1 F53         0.0380
     77 H36        68.3800   58.2448   16.3755 H         1 F53         0.0449
     78 H37        69.2066   59.8039   16.0395 H         1 F53         0.0449
     79 H38        68.5326   57.2503   18.9233 H         1 F53         0.0557
     80 H39        68.1794   57.9428   21.4250 H         1 F53         0.0599
     81 H40        68.4467   60.4473   22.1364 H         1 F53         0.0559
     82 H41        69.0583   62.2569   20.3523 H         1 F53         0.0599
     83 H42        69.4042   61.5689   17.8567 H         1 F53         0.0557
@<TRIPOS>BOND
     1    1    2 1  
     2    3    1 1  
     3    4    3 ar 
     4    8    3 ar 
     5    5    4 ar 
     6    6    5 ar 
     7    6    7 ar 
     8   10    6 1  
     9    7    8 ar 
    10   31    9 1  
    11   32    9 1  
    12   10   11 2  
    13   10   12 2  
    14   13   10 am 
    15   13   14 1  
    16   18   13 1  
    17   14   15 1  
    18   15   16 1  
    19   15   17 1  
    20   16   23 1  
    21   17   20 1  
    22   19   18 1  
    23   19   21 1  
    24   22   19 1  
    25   22   24 1  
    26   35   22 1  
    27   24   25 am 
    28   25   26 2  
    29   25   27 1  
    30   27   28 1  
    31   28   29 1  
    32   28   34 1  
    33   29   30 1  
    34   31   30 1  
    35   34   31 1  
    36   33   32 1  
    37   34   33 1  
    38   41   35 1  
    39   36   37 ar 
    40   36   41 ar 
    41   37   38 ar 
    42   38   39 ar 
    43   39   40 ar 
    44   40   41 ar 
    45    1   42 1  
    46    1   43 1  
    47    2   44 1  
    48    4   45 1  
    49    5   46 1  
    50    7   47 1  
    51    8   48 1  
    52   14   49 1  
    53   14   50 1  
    54   15   51 1  
    55   16   52 1  
    56   16   53 1  
    57   17   54 1  
    58   17   55 1  
    59   18   56 1  
    60   18   57 1  
    61   19   58 1  
    62   20   59 1  
    63   20   60 1  
    64   20   61 1  
    65   21   62 1  
    66   22   63 1  
    67   23   64 1  
    68   23   65 1  
    69   23   66 1  
    70   24   67 1  
    71   28   68 1  
    72   29   69 1  
    73   29   70 1  
    74   31   71 1  
    75   32   72 1  
    76   32   73 1  
    77   33   74 1  
    78   33   75 1  
    79   34   76 1  
    80   35   77 1  
    81   35   78 1  
    82   36   79 1  
    83   37   80 1  
    84   38   81 1  
    85   39   82 1  
    86   40   83 1  
@<TRIPOS>SUBSTRUCTURE
     1 F53         1

