### 
### Created by X-TOOL on Mon Aug  2 16:15:52 2021
### 

@<TRIPOS>MOLECULE
6oxr_ligand
   80    83     1     0     0
SMALL
GAST_HUCK


@<TRIPOS>ATOM
      1 C13        70.0900   56.8890   14.0630 C.3       1 NJA         0.0578
      2 C21        74.1910   59.8260   19.2180 C.3       1 NJA         0.1189
      3 C22        75.6840   60.4290   18.8640 C.3       1 NJA         0.0815
      4 C24        73.7850   60.5670   20.2430 C.3       1 NJA         0.0449
      5 C26        72.2960   60.7840   20.3190 C.3       1 NJA        -0.0191
      6 C01        66.1520   52.3500   12.9070 C.ar      1 NJA        -0.0149
      7 C02        65.9890   53.8680   13.0390 C.ar      1 NJA        -0.0560
      8 C03        66.9380   54.6610   13.9450 C.ar      1 NJA        -0.0419
      9 C04        68.0370   53.9270   14.7150 C.ar      1 NJA         0.1013
     10 C05        68.2130   52.4160   14.5810 C.ar      1 NJA        -0.0419
     11 C06        67.2570   51.6190   13.6640 C.ar      1 NJA        -0.0560
     12 C11        71.1680   54.5980   13.9480 C.3       1 NJA         0.0320
     13 C12        72.7030   54.9420   13.9760 C.3       1 NJA        -0.0296
     14 C14        70.9640   58.0030   14.6730 C.3       1 NJA         0.0967
     15 C16        70.5540   58.3010   16.1360 C.3       1 NJA         0.0807
     16 C18        72.4760   58.9650   17.6930 C.2       1 NJA         0.3203
     17 C25        74.3850   61.9940   19.9530 C.3       1 NJA         0.1648
     18 C27        72.0440   61.9080   19.6760 C.3       1 NJA         0.0512
     19 C29        69.1560   58.9050   16.2160 C.3       1 NJA         0.0064
     20 C30        68.8870   59.3690   17.7120 C.ar      1 NJA        -0.0408
     21 C31        68.5170   58.3320   18.7820 C.ar      1 NJA        -0.0603
     22 C32        68.2600   58.7810   20.2310 C.ar      1 NJA        -0.0686
     23 C33        68.3730   60.2600   20.6050 C.ar      1 NJA        -0.0687
     24 C34        68.7440   61.3030   19.5300 C.ar      1 NJA        -0.0686
     25 C35        69.0000   60.8550   18.0870 C.ar      1 NJA        -0.0603
     26 C36        64.8850   50.2330   12.6180 C.3       1 NJA        -0.0288
     27 C37        65.2230   51.6020   12.0070 C.3       1 NJA         0.0862
     28 C39        73.4710   53.9360   13.0800 C.3       1 NJA        -0.0612
     29 C40        73.2230   54.8460   15.4150 C.3       1 NJA        -0.0612
     30 N10        70.4130   55.5700   14.7290 N.am      1 NJA        -0.2320
     31 N17        71.4660   59.2860   16.6460 N.am      1 NJA        -0.2550
     32 O08        68.4360   55.9710   16.4890 O.2       1 NJA        -0.1510
     33 O09        69.7650   54.1130   16.8750 O.2       1 NJA        -0.1510
     34 O15        70.8330   59.1470   13.9330 O.3       1 NJA        -0.3877
     35 O19        72.5190   57.8710   18.2150 O.2       1 NJA        -0.3775
     36 O20        73.3750   60.0130   18.0570 O.3       1 NJA        -0.2578
     37 O23        75.5350   61.7510   18.9160 O.3       1 NJA        -0.3480
     38 O28        73.4540   62.6820   19.4420 O.3       1 NJA        -0.3509
     39 O38        65.8730   51.4250   10.7650 O.3       1 NJA        -0.3796
     40 S07        69.1780   54.9150   15.7910 S.o2      1 NJA         0.0676
     41 H1         70.2924   56.8139   12.9844 H         1 NJA         0.0504
     42 H2         69.0281   57.1287   14.2210 H         1 NJA         0.0504
     43 H3         74.2291   58.7613   19.4916 H         1 NJA         0.0675
     44 H4         76.0016   60.1136   17.8592 H         1 NJA         0.0590
     45 H5         76.4241   60.0925   19.6050 H         1 NJA         0.0590
     46 H6         74.1542   60.1429   21.1884 H         1 NJA         0.0380
     47 H7         71.9781   60.8682   21.3687 H         1 NJA         0.0293
     48 H8         71.7659   59.9469   19.8413 H         1 NJA         0.0293
     49 H9         65.2047   54.3798   12.4931 H         1 NJA         0.0558
     50 H10        66.8308   55.7356   14.0393 H         1 NJA         0.0619
     51 H11        69.0011   51.9069   15.1239 H         1 NJA         0.0619
     52 H12        67.3711   50.5461   13.5593 H         1 NJA         0.0558
     53 H13        71.0140   53.5948   14.3720 H         1 NJA         0.0480
     54 H14        70.8121   54.6149   12.9073 H         1 NJA         0.0480
     55 H15        72.8575   55.9632   13.5976 H         1 NJA         0.0311
     56 H16        72.0148   57.6783   14.6560 H         1 NJA         0.0634
     57 H17        70.5999   57.3784   16.7332 H         1 NJA         0.0604
     58 H18        74.7690   62.4728   20.8658 H         1 NJA         0.0913
     59 H19        71.3683   62.5367   20.2745 H         1 NJA         0.0561
     60 H20        71.5751   61.6858   18.7061 H         1 NJA         0.0561
     61 H21        68.4099   58.1520   15.9221 H         1 NJA         0.0449
     62 H22        69.0878   59.7714   15.5417 H         1 NJA         0.0449
     63 H23        68.4369   57.2840   18.5167 H         1 NJA         0.0557
     64 H24        67.9988   58.0492   20.9869 H         1 NJA         0.0599
     65 H25        68.1923   60.5757   21.6262 H         1 NJA         0.0559
     66 H26        68.8234   62.3511   19.7951 H         1 NJA         0.0599
     67 H27        69.2608   61.5864   17.3307 H         1 NJA         0.0557
     68 H28        64.2012   49.6912   11.9480 H         1 NJA         0.0277
     69 H29        64.4025   50.3770   13.5960 H         1 NJA         0.0277
     70 H30        65.8093   49.6509   12.7473 H         1 NJA         0.0277
     71 H31        64.2967   52.1780   11.8653 H         1 NJA         0.0754
     72 H32        74.5447   54.1745   13.0980 H         1 NJA         0.0233
     73 H33        73.0974   54.0049   12.0477 H         1 NJA         0.0233
     74 H34        73.3159   52.9150   13.4587 H         1 NJA         0.0233
     75 H35        72.6779   55.5598   16.0502 H         1 NJA         0.0233
     76 H36        74.2967   55.0844   15.4336 H         1 NJA         0.0233
     77 H37        73.0674   53.8251   15.7938 H         1 NJA         0.0233
     78 H38        71.4217   60.2181   16.2865 H         1 NJA         0.1873
     79 H39        71.0831   58.9713   13.0335 H         1 NJA         0.2100
     80 H40        65.3007   50.9496   10.1743 H         1 NJA         0.2130
@<TRIPOS>BOND
     1    1   14 1  
     2   30    1 1  
     3    2    3 1  
     4    2    4 1  
     5   36    2 1  
     6    3   37 1  
     7    4    5 1  
     8    4   17 1  
     9    5   18 1  
    10    7    6 ar 
    11   11    6 ar 
    12    6   27 1  
    13    8    7 ar 
    14    9    8 ar 
    15    9   10 ar 
    16   40    9 1  
    17   10   11 ar 
    18   12   13 1  
    19   30   12 1  
    20   13   28 1  
    21   13   29 1  
    22   14   15 1  
    23   14   34 1  
    24   15   19 1  
    25   15   31 1  
    26   31   16 am 
    27   16   35 2  
    28   16   36 1  
    29   17   37 1  
    30   17   38 1  
    31   38   18 1  
    32   19   20 1  
    33   20   21 ar 
    34   20   25 ar 
    35   21   22 ar 
    36   22   23 ar 
    37   24   23 ar 
    38   25   24 ar 
    39   27   26 1  
    40   27   39 1  
    41   30   40 am 
    42   40   32 2  
    43   40   33 2  
    44    1   41 1  
    45    1   42 1  
    46    2   43 1  
    47    3   44 1  
    48    3   45 1  
    49    4   46 1  
    50    5   47 1  
    51    5   48 1  
    52    7   49 1  
    53    8   50 1  
    54   10   51 1  
    55   11   52 1  
    56   12   53 1  
    57   12   54 1  
    58   13   55 1  
    59   14   56 1  
    60   15   57 1  
    61   17   58 1  
    62   18   59 1  
    63   18   60 1  
    64   19   61 1  
    65   19   62 1  
    66   21   63 1  
    67   22   64 1  
    68   23   65 1  
    69   24   66 1  
    70   25   67 1  
    71   26   68 1  
    72   26   69 1  
    73   26   70 1  
    74   27   71 1  
    75   28   72 1  
    76   28   73 1  
    77   28   74 1  
    78   29   75 1  
    79   29   76 1  
    80   29   77 1  
    81   31   78 1  
    82   34   79 1  
    83   39   80 1  
@<TRIPOS>SUBSTRUCTURE
     1 NJA         1

