### 
### Created by X-TOOL on Mon Aug  2 16:15:52 2021
### 

@<TRIPOS>MOLECULE
6oxs_ligand
   86    89     1     0     0
SMALL
GAST_HUCK


@<TRIPOS>ATOM
      1 C13        73.4620   55.1830   15.2770 C.3       1 NJ4        -0.0612
      2 C15        70.2740   57.2240   14.0070 C.3       1 NJ4         0.0577
      3 C20        72.7190   59.1890   17.6190 C.2       1 NJ4         0.3201
      4 C24        75.8730   60.7830   18.8190 C.3       1 NJ4         0.0815
      5 C26        73.9140   60.9030   20.1320 C.3       1 NJ4         0.0449
      6 C28        72.4240   61.1250   20.1050 C.3       1 NJ4        -0.0191
      7 C01        66.6300   52.3410   12.9890 C.ar      1 NJ4        -0.0149
      8 C02        66.4540   53.8760   12.8750 C.ar      1 NJ4        -0.0560
      9 C03        67.3310   54.7970   13.7220 C.ar      1 NJ4        -0.0419
     10 C04        68.3600   54.1630   14.6660 C.ar      1 NJ4         0.1013
     11 C05        68.5440   52.6410   14.7720 C.ar      1 NJ4        -0.0419
     12 C06        67.6670   51.7230   13.9220 C.ar      1 NJ4        -0.0560
     13 C11        71.3990   54.9360   13.8050 C.3       1 NJ4         0.0320
     14 C12        72.9070   55.2590   13.8240 C.3       1 NJ4        -0.0296
     15 C14        73.6350   54.2340   12.9480 C.3       1 NJ4        -0.0612
     16 C16        71.1610   58.3210   14.6120 C.3       1 NJ4         0.0949
     17 C18        70.7620   58.5850   16.0700 C.3       1 NJ4         0.0715
     18 C23        74.3900   60.1340   19.1580 C.3       1 NJ4         0.1189
     19 C27        74.5360   62.3420   19.8570 C.3       1 NJ4         0.1648
     20 C29        72.2260   62.2070   19.3740 C.3       1 NJ4         0.0512
     21 C31        69.3800   59.2160   16.1810 C.3       1 NJ4        -0.0246
     22 C32        69.1390   59.6250   17.6580 C.3       1 NJ4        -0.0389
     23 C33        69.1560   61.1310   18.0410 C.3       1 NJ4        -0.0501
     24 C34        68.9190   61.5520   19.4990 C.3       1 NJ4        -0.0528
     25 C35        68.6640   60.4750   20.5780 C.3       1 NJ4        -0.0530
     26 C36        68.6470   58.9710   20.1910 C.3       1 NJ4        -0.0528
     27 C37        68.8840   58.5490   18.7290 C.3       1 NJ4        -0.0501
     28 C38        64.2710   51.7380   12.3930 C.3       1 NJ4        -0.0288
     29 C40        65.7400   51.4110   12.1150 C.3       1 NJ4         0.0862
     30 N10        70.6380   55.9130   14.6350 N.am      1 NJ4        -0.2320
     31 N19        71.6940   59.5520   16.6140 N.am      1 NJ4        -0.2569
     32 O08        68.6800   56.2880   16.3660 O.2       1 NJ4        -0.1510
     33 O09        70.0600   54.4540   16.7700 O.2       1 NJ4        -0.1510
     34 O17        71.0610   59.4810   13.8660 O.3       1 NJ4        -0.3879
     35 O21        72.7750   58.1130   18.1130 O.2       1 NJ4        -0.3775
     36 O22        73.6250   60.2390   17.9540 O.3       1 NJ4        -0.2578
     37 O25        75.6440   62.1040   18.7790 O.3       1 NJ4        -0.3480
     38 O30        73.6150   63.0720   19.4080 O.3       1 NJ4        -0.3509
     39 O39        66.0720   51.6730   10.7960 O.3       1 NJ4        -0.3796
     40 S07        69.4510   55.2420   15.7020 S.o2      1 NJ4         0.0676
     41 H1         74.5371   55.4158   15.2715 H         1 NJ4         0.0233
     42 H2         73.3085   54.1693   15.6756 H         1 NJ4         0.0233
     43 H3         72.9326   55.9102   15.9102 H         1 NJ4         0.0233
     44 H4         70.4379   57.1724   12.9205 H         1 NJ4         0.0504
     45 H5         69.2164   57.4500   14.2080 H         1 NJ4         0.0504
     46 H6         76.2467   60.4209   17.8499 H         1 NJ4         0.0590
     47 H7         76.5986   60.5351   19.6077 H         1 NJ4         0.0590
     48 H8         74.2168   60.5002   21.1098 H         1 NJ4         0.0380
     49 H9         72.0428   61.2791   21.1253 H         1 NJ4         0.0293
     50 H10        71.9178   60.2603   19.6511 H         1 NJ4         0.0293
     51 H11        65.7152   54.2930   12.2003 H         1 NJ4         0.0558
     52 H12        67.2282   55.8742   13.6571 H         1 NJ4         0.0619
     53 H13        69.2871   52.2237   15.4418 H         1 NJ4         0.0619
     54 H14        67.7801   50.6465   13.9811 H         1 NJ4         0.0558
     55 H15        71.2419   53.9235   14.2051 H         1 NJ4         0.0480
     56 H16        71.0334   54.9815   12.7685 H         1 NJ4         0.0480
     57 H17        73.0705   56.2708   13.4246 H         1 NJ4         0.0311
     58 H18        74.7136   54.4500   12.9503 H         1 NJ4         0.0233
     59 H19        73.2515   54.2931   11.9187 H         1 NJ4         0.0233
     60 H20        73.4627   53.2232   13.3461 H         1 NJ4         0.0233
     61 H21        72.2063   57.9793   14.5910 H         1 NJ4         0.0632
     62 H22        70.7938   57.6448   16.6401 H         1 NJ4         0.0581
     63 H23        74.4579   59.0851   19.4824 H         1 NJ4         0.0675
     64 H24        74.9639   62.7814   20.7701 H         1 NJ4         0.0913
     65 H25        71.4013   62.8010   19.7949 H         1 NJ4         0.0561
     66 H26        71.9831   61.9239   18.3392 H         1 NJ4         0.0561
     67 H27        68.6151   58.4901   15.8682 H         1 NJ4         0.0291
     68 H28        69.3262   60.1059   15.5367 H         1 NJ4         0.0291
     69 H29        70.2194   59.5612   17.8547 H         1 NJ4         0.0301
     70 H30        68.3780   61.6216   17.4377 H         1 NJ4         0.0268
     71 H31        70.1434   61.5213   17.7536 H         1 NJ4         0.0268
     72 H32        68.0431   62.2174   19.5000 H         1 NJ4         0.0265
     73 H33        69.8084   62.1162   19.8162 H         1 NJ4         0.0265
     74 H34        67.6832   60.6986   21.0231 H         1 NJ4         0.0265
     75 H35        69.4486   60.5973   21.3392 H         1 NJ4         0.0265
     76 H36        67.6595   58.5805   20.4780 H         1 NJ4         0.0265
     77 H37        69.4250   58.4793   20.7934 H         1 NJ4         0.0265
     78 H38        69.7592   57.8826   18.7269 H         1 NJ4         0.0268
     79 H39        67.9940   57.9864   18.4108 H         1 NJ4         0.0268
     80 H40        63.6285   51.0875   11.7814 H         1 NJ4         0.0277
     81 H41        64.0751   52.7902   12.1391 H         1 NJ4         0.0277
     82 H42        64.0534   51.5712   13.4583 H         1 NJ4         0.0277
     83 H43        65.9352   50.3545   12.3508 H         1 NJ4         0.0754
     84 H44        71.6431   60.4997   16.2990 H         1 NJ4         0.1871
     85 H45        71.3110   59.3008   12.9674 H         1 NJ4         0.2099
     86 H46        65.5299   51.1435   10.2230 H         1 NJ4         0.2130
@<TRIPOS>BOND
     1   14    1 1  
     2    2   16 1  
     3   30    2 1  
     4   31    3 am 
     5    3   35 2  
     6    3   36 1  
     7   18    4 1  
     8    4   37 1  
     9    5    6 1  
    10   18    5 1  
    11    5   19 1  
    12    6   20 1  
    13    8    7 ar 
    14   12    7 ar 
    15    7   29 1  
    16    9    8 ar 
    17   10    9 ar 
    18   10   11 ar 
    19   40   10 1  
    20   11   12 ar 
    21   13   14 1  
    22   30   13 1  
    23   14   15 1  
    24   16   17 1  
    25   16   34 1  
    26   17   21 1  
    27   17   31 1  
    28   36   18 1  
    29   19   37 1  
    30   19   38 1  
    31   38   20 1  
    32   21   22 1  
    33   22   23 1  
    34   22   27 1  
    35   23   24 1  
    36   24   25 1  
    37   26   25 1  
    38   27   26 1  
    39   29   28 1  
    40   29   39 1  
    41   30   40 am 
    42   40   32 2  
    43   40   33 2  
    44    1   41 1  
    45    1   42 1  
    46    1   43 1  
    47    2   44 1  
    48    2   45 1  
    49    4   46 1  
    50    4   47 1  
    51    5   48 1  
    52    6   49 1  
    53    6   50 1  
    54    8   51 1  
    55    9   52 1  
    56   11   53 1  
    57   12   54 1  
    58   13   55 1  
    59   13   56 1  
    60   14   57 1  
    61   15   58 1  
    62   15   59 1  
    63   15   60 1  
    64   16   61 1  
    65   17   62 1  
    66   18   63 1  
    67   19   64 1  
    68   20   65 1  
    69   20   66 1  
    70   21   67 1  
    71   21   68 1  
    72   22   69 1  
    73   23   70 1  
    74   23   71 1  
    75   24   72 1  
    76   24   73 1  
    77   25   74 1  
    78   25   75 1  
    79   26   76 1  
    80   26   77 1  
    81   27   78 1  
    82   27   79 1  
    83   28   80 1  
    84   28   81 1  
    85   28   82 1  
    86   29   83 1  
    87   31   84 1  
    88   34   85 1  
    89   39   86 1  
@<TRIPOS>SUBSTRUCTURE
     1 NJ4         1

