### 
### Created by X-TOOL on Mon Aug  2 16:15:52 2021
### 

@<TRIPOS>MOLECULE
6oxt_ligand
   89    92     1     0     0
SMALL
GAST_HUCK


@<TRIPOS>ATOM
      1 C13        71.2510   57.6540   14.9320 C.3       1 NEJ         0.0967
      2 C15        70.8580   57.9580   16.3780 C.3       1 NEJ         0.0807
      3 C17        72.8080   58.5720   17.9430 C.2       1 NEJ         0.3203
      4 C20        74.4800   59.5630   19.4450 C.3       1 NEJ         0.1189
      5 C21        75.9450   60.1900   19.0330 C.3       1 NEJ         0.0815
      6 C24        74.6330   61.8160   19.9580 C.3       1 NEJ         0.1648
      7 C26        72.3040   61.6660   19.6550 C.3       1 NEJ         0.0512
      8 C28        69.4860   58.6280   16.4450 C.3       1 NEJ         0.0064
      9 C01        66.8490   51.5950   13.4450 C.3       1 NEJ        -0.0151
     10 C02        67.9740   51.0200   14.3050 C.3       1 NEJ        -0.0461
     11 C03        68.7990   51.9550   15.1610 C.3       1 NEJ        -0.0286
     12 C04        68.4880   53.4730   15.1330 C.3       1 NEJ         0.0957
     13 C05        67.3790   54.0590   14.2650 C.3       1 NEJ        -0.0286
     14 C06        66.5520   53.1140   13.4090 C.3       1 NEJ        -0.0461
     15 C11        71.5220   54.1570   14.3900 C.3       1 NEJ         0.0319
     16 C12        70.3680   56.5350   14.3580 C.3       1 NEJ         0.0575
     17 C23        74.0420   60.4020   20.3720 C.3       1 NEJ         0.0449
     18 C25        72.5560   60.6100   20.3970 C.3       1 NEJ        -0.0191
     19 C29        69.2700   59.1020   17.9010 C.ar      1 NEJ        -0.0408
     20 C30        68.9730   58.0630   18.9870 C.ar      1 NEJ        -0.0603
     21 C31        68.7620   58.5140   20.4370 C.ar      1 NEJ        -0.0686
     22 C32        68.8490   59.9820   20.7880 C.ar      1 NEJ        -0.0687
     23 C33        69.1500   61.0140   19.7020 C.ar      1 NEJ        -0.0686
     24 C34        69.3630   60.5600   18.2470 C.ar      1 NEJ        -0.0603
     25 C35        66.3770   49.2080   12.8030 C.3       1 NEJ        -0.0387
     26 C36        73.4350   52.1700   13.6580 C.3       1 NEJ        -0.0650
     27 C37        72.9870   54.5630   14.3830 C.3       1 NEJ        -0.0270
     28 C38        73.7610   53.6350   13.3990 C.3       1 NEJ        -0.0518
     29 C39        73.5640   54.4810   15.7780 C.3       1 NEJ        -0.0610
     30 C40        66.0240   50.6790   12.5650 C.3       1 NEJ         0.0553
     31 N10        70.6980   55.2070   15.0920 N.am      1 NEJ        -0.2354
     32 N16        71.8200   58.9220   16.9040 N.am      1 NEJ        -0.2550
     33 O08        70.0710   53.8680   17.2670 O.2       1 NEJ        -0.1550
     34 O09        68.6550   55.6370   16.7440 O.2       1 NEJ        -0.1550
     35 O14        71.1010   58.7980   14.1760 O.3       1 NEJ        -0.3877
     36 O18        72.8350   57.5170   18.4830 O.2       1 NEJ        -0.3775
     37 O19        73.7110   59.6140   18.2380 O.3       1 NEJ        -0.2578
     38 O22        75.6900   61.4900   18.8630 O.3       1 NEJ        -0.3480
     39 O27        73.6940   62.5010   19.4870 O.3       1 NEJ        -0.3509
     40 O41        66.3790   51.0290   11.2730 O.3       1 NEJ        -0.3918
     41 S07        69.4850   54.5740   16.1450 S.o2      1 NEJ         0.0443
     42 H1         72.3026   57.3327   14.9027 H         1 NEJ         0.0634
     43 H2         70.8608   57.0330   16.9733 H         1 NEJ         0.0604
     44 H3         74.5430   58.5351   19.8315 H         1 NEJ         0.0675
     45 H4         76.3190   59.7376   18.1027 H         1 NEJ         0.0590
     46 H5         76.6794   60.0351   19.8371 H         1 NEJ         0.0590
     47 H6         75.0942   62.3321   20.8130 H         1 NEJ         0.0913
     48 H7         71.5465   62.2954   20.1450 H         1 NEJ         0.0561
     49 H8         71.9357   61.3503   18.6678 H         1 NEJ         0.0561
     50 H9         68.7027   57.9085   16.1643 H         1 NEJ         0.0449
     51 H10        69.4549   59.4892   15.7613 H         1 NEJ         0.0449
     52 H11        66.1400   51.4643   14.2758 H         1 NEJ         0.0326
     53 H12        68.6704   50.5091   13.6238 H         1 NEJ         0.0269
     54 H13        67.5168   50.2835   14.9821 H         1 NEJ         0.0269
     55 H14        69.8474   51.8354   14.8503 H         1 NEJ         0.0284
     56 H15        68.6852   51.6222   16.2032 H         1 NEJ         0.0284
     57 H16        67.7719   53.3427   15.9577 H         1 NEJ         0.0554
     58 H17        67.8482   54.7859   13.5856 H         1 NEJ         0.0284
     59 H18        66.6826   54.5818   14.9371 H         1 NEJ         0.0284
     60 H19        65.5028   53.2421   13.7134 H         1 NEJ         0.0269
     61 H20        66.6733   53.4390   12.3652 H         1 NEJ         0.0269
     62 H21        71.4127   53.1970   14.9157 H         1 NEJ         0.0480
     63 H22        71.1689   54.0499   13.3537 H         1 NEJ         0.0480
     64 H23        70.5681   56.4218   13.2823 H         1 NEJ         0.0504
     65 H24        69.3080   56.7868   14.5093 H         1 NEJ         0.0504
     66 H25        74.3932   60.0805   21.3636 H         1 NEJ         0.0380
     67 H26        72.0440   59.7278   19.9853 H         1 NEJ         0.0293
     68 H27        72.2159   60.7831   21.4287 H         1 NEJ         0.0293
     69 H28        68.9122   57.0115   18.7308 H         1 NEJ         0.0557
     70 H29        68.5510   57.7823   21.2085 H         1 NEJ         0.0599
     71 H30        68.6975   60.3031   21.8122 H         1 NEJ         0.0559
     72 H31        69.2135   62.0658   19.9564 H         1 NEJ         0.0599
     73 H32        69.5793   61.2898   17.4752 H         1 NEJ         0.0557
     74 H33        65.7610   48.5728   12.1495 H         1 NEJ         0.0255
     75 H34        66.1827   48.9497   13.8544 H         1 NEJ         0.0255
     76 H35        67.4408   49.0448   12.5759 H         1 NEJ         0.0255
     77 H36        73.9939   51.5395   12.9508 H         1 NEJ         0.0230
     78 H37        72.3559   52.0050   13.5227 H         1 NEJ         0.0230
     79 H38        73.7198   51.9074   14.6875 H         1 NEJ         0.0230
     80 H39        73.0692   55.6019   14.0310 H         1 NEJ         0.0314
     81 H40        73.4777   53.8894   12.3670 H         1 NEJ         0.0266
     82 H41        74.8416   53.7918   13.5319 H         1 NEJ         0.0266
     83 H42        72.9985   55.1451   16.4483 H         1 NEJ         0.0233
     84 H43        74.6187   54.7926   15.7575 H         1 NEJ         0.0233
     85 H44        73.4945   53.4458   16.1433 H         1 NEJ         0.0233
     86 H45        64.9493   50.8368   12.7384 H         1 NEJ         0.0593
     87 H46        71.8091   59.8558   16.5464 H         1 NEJ         0.1873
     88 H47        71.3601   58.6200   13.2795 H         1 NEJ         0.2100
     89 H48        65.9052   50.4831   10.6567 H         1 NEJ         0.2098
@<TRIPOS>BOND
     1    1    2 1  
     2   16    1 1  
     3    1   35 1  
     4    2    8 1  
     5    2   32 1  
     6   32    3 am 
     7    3   36 2  
     8    3   37 1  
     9    4    5 1  
    10    4   17 1  
    11   37    4 1  
    12    5   38 1  
    13   17    6 1  
    14    6   38 1  
    15    6   39 1  
    16   18    7 1  
    17    7   39 1  
    18    8   19 1  
    19   10    9 1  
    20   14    9 1  
    21    9   30 1  
    22   11   10 1  
    23   12   11 1  
    24   12   13 1  
    25   41   12 1  
    26   13   14 1  
    27   15   27 1  
    28   31   15 1  
    29   31   16 1  
    30   17   18 1  
    31   19   20 ar 
    32   19   24 ar 
    33   20   21 ar 
    34   21   22 ar 
    35   23   22 ar 
    36   24   23 ar 
    37   30   25 1  
    38   28   26 1  
    39   27   28 1  
    40   27   29 1  
    41   30   40 1  
    42   31   41 am 
    43   41   33 2  
    44   41   34 2  
    45    1   42 1  
    46    2   43 1  
    47    4   44 1  
    48    5   45 1  
    49    5   46 1  
    50    6   47 1  
    51    7   48 1  
    52    7   49 1  
    53    8   50 1  
    54    8   51 1  
    55    9   52 1  
    56   10   53 1  
    57   10   54 1  
    58   11   55 1  
    59   11   56 1  
    60   12   57 1  
    61   13   58 1  
    62   13   59 1  
    63   14   60 1  
    64   14   61 1  
    65   15   62 1  
    66   15   63 1  
    67   16   64 1  
    68   16   65 1  
    69   17   66 1  
    70   18   67 1  
    71   18   68 1  
    72   20   69 1  
    73   21   70 1  
    74   22   71 1  
    75   23   72 1  
    76   24   73 1  
    77   25   74 1  
    78   25   75 1  
    79   25   76 1  
    80   26   77 1  
    81   26   78 1  
    82   26   79 1  
    83   27   80 1  
    84   28   81 1  
    85   28   82 1  
    86   29   83 1  
    87   29   84 1  
    88   29   85 1  
    89   30   86 1  
    90   32   87 1  
    91   35   88 1  
    92   40   89 1  
@<TRIPOS>SUBSTRUCTURE
     1 NEJ         1

