### 
### Created by X-TOOL on Mon Aug  2 16:15:52 2021
### 

@<TRIPOS>MOLECULE
6oxu_ligand
   83    86     1     0     0
SMALL
GAST_HUCK


@<TRIPOS>ATOM
      1 C13        71.1040   57.5610   14.9010 C.3       1 NE7         0.0967
      2 C15        70.7160   57.8600   16.3420 C.3       1 NE7         0.0807
      3 C17        72.6740   58.4000   17.9200 C.2       1 NE7         0.3203
      4 C20        74.5110   59.3430   19.3560 C.3       1 NE7         0.1189
      5 C21        75.6530   59.7780   18.9810 C.3       1 NE7         0.0815
      6 C24        74.6460   61.6770   19.9130 C.3       1 NE7         0.1648
      7 C26        72.3540   61.7790   19.4600 C.3       1 NE7         0.0512
      8 C28        69.3680   58.5830   16.3740 C.3       1 NE7         0.0064
      9 C01        66.7680   51.5690   13.4310 C.ar      1 NE7        -0.0149
     10 C02        67.8210   50.9740   14.3520 C.ar      1 NE7        -0.0560
     11 C03        68.6170   51.9330   15.2060 C.ar      1 NE7        -0.0419
     12 C04        68.3640   53.4270   15.0720 C.ar      1 NE7         0.1013
     13 C05        67.3270   54.0440   14.1460 C.ar      1 NE7        -0.0419
     14 C06        66.5250   53.0720   13.3020 C.ar      1 NE7        -0.0560
     15 C11        71.3450   54.1220   14.3040 C.3       1 NE7         0.0322
     16 C12        70.1890   56.4460   14.3350 C.3       1 NE7         0.0578
     17 C23        74.0220   60.3610   20.4190 C.3       1 NE7         0.0449
     18 C25        72.6650   60.5300   20.4470 C.3       1 NE7        -0.0191
     19 C29        69.1450   59.0290   17.8360 C.ar      1 NE7        -0.0408
     20 C30        68.7900   57.9750   18.8690 C.ar      1 NE7        -0.0603
     21 C31        68.5740   58.3780   20.3280 C.ar      1 NE7        -0.0686
     22 C32        68.7130   59.8370   20.7330 C.ar      1 NE7        -0.0687
     23 C33        69.0820   60.8940   19.6880 C.ar      1 NE7        -0.0686
     24 C34        69.2820   60.4930   18.2320 C.ar      1 NE7        -0.0603
     25 C35        64.4750   50.9940   12.6860 C.3       1 NE7        -0.0288
     26 C36        73.6400   52.0700   14.0650 C.3       1 NE7        -0.0650
     27 C37        72.8400   54.4710   14.3110 C.3       1 NE7        -0.0270
     28 C38        73.5360   53.4550   13.3910 C.3       1 NE7        -0.0518
     29 C39        73.4180   54.4740   15.7300 C.3       1 NE7        -0.0610
     30 C40        65.9550   50.6560   12.5460 C.3       1 NE7         0.0862
     31 N10        70.5560   55.1700   15.0140 N.am      1 NE7        -0.2320
     32 N16        71.6930   58.7880   16.8960 N.am      1 NE7        -0.2550
     33 O08        68.5280   55.6190   16.5930 O.2       1 NE7        -0.1510
     34 O09        69.9210   53.7880   17.1660 O.2       1 NE7        -0.1510
     35 O14        70.9580   58.7350   14.1710 O.3       1 NE7        -0.3877
     36 O18        72.6840   57.3260   18.4660 O.2       1 NE7        -0.3775
     37 O19        73.6100   59.4450   18.1720 O.3       1 NE7        -0.2578
     38 O22        75.4250   61.3970   18.9080 O.3       1 NE7        -0.3480
     39 O27        73.4160   62.5630   19.5050 O.3       1 NE7        -0.3509
     40 O41        66.3740   50.9500   11.2540 O.3       1 NE7        -0.3796
     41 S07        69.3480   54.5440   16.0690 S.o2      1 NE7         0.0676
     42 H1         72.1512   57.2271   14.8580 H         1 NE7         0.0634
     43 H2         70.6752   56.9308   16.9293 H         1 NE7         0.0604
     44 H3         74.5580   58.3174   19.7509 H         1 NE7         0.0675
     45 H4         75.9264   59.3726   17.9957 H         1 NE7         0.0590
     46 H5         76.4334   59.5214   19.7125 H         1 NE7         0.0590
     47 H6         75.2281   62.1730   20.7037 H         1 NE7         0.0913
     48 H7         71.4635   62.3245   19.8056 H         1 NE7         0.0561
     49 H8         72.1889   61.4206   18.4332 H         1 NE7         0.0561
     50 H9         68.5639   57.9024   16.0574 H         1 NE7         0.0449
     51 H10        69.3904   59.4587   15.7087 H         1 NE7         0.0449
     52 H11        67.9938   49.9047   14.3943 H         1 NE7         0.0558
     53 H12        69.3581   51.5616   15.9045 H         1 NE7         0.0619
     54 H13        67.1704   55.1153   14.0924 H         1 NE7         0.0619
     55 H14        65.7799   53.4433   12.6077 H         1 NE7         0.0558
     56 H15        71.1974   53.1555   14.8080 H         1 NE7         0.0481
     57 H16        70.9958   54.0501   13.2634 H         1 NE7         0.0481
     58 H17        70.3422   56.3504   13.2499 H         1 NE7         0.0504
     59 H18        69.1351   56.6879   14.5366 H         1 NE7         0.0504
     60 H19        74.3840   60.0864   21.4208 H         1 NE7         0.0380
     61 H20        72.1586   59.6222   20.0871 H         1 NE7         0.0293
     62 H21        72.3284   60.7568   21.4694 H         1 NE7         0.0293
     63 H22        68.6897   56.9372   18.5725 H         1 NE7         0.0557
     64 H23        68.3232   57.6280   21.0694 H         1 NE7         0.0599
     65 H24        68.5505   60.1297   21.7640 H         1 NE7         0.0559
     66 H25        69.2011   61.9297   19.9850 H         1 NE7         0.0599
     67 H26        69.5194   61.2422   17.4854 H         1 NE7         0.0557
     68 H27        63.8841   50.3277   12.0404 H         1 NE7         0.0277
     69 H28        64.3075   52.0388   12.3856 H         1 NE7         0.0277
     70 H29        64.1655   50.8593   13.7329 H         1 NE7         0.0277
     71 H30        74.1413   51.3672   13.3833 H         1 NE7         0.0230
     72 H31        72.6310   51.6986   14.2975 H         1 NE7         0.0230
     73 H32        74.2218   52.1573   14.9944 H         1 NE7         0.0230
     74 H33        72.9737   55.4790   13.8913 H         1 NE7         0.0314
     75 H34        72.9573   53.3585   12.4605 H         1 NE7         0.0266
     76 H35        74.5481   53.8172   13.1575 H         1 NE7         0.0266
     77 H36        72.8845   55.2165   16.3416 H         1 NE7         0.0233
     78 H37        74.4867   54.7316   15.6901 H         1 NE7         0.0233
     79 H38        73.2977   53.4762   16.1771 H         1 NE7         0.0233
     80 H39        66.1315   49.5988   12.7932 H         1 NE7         0.0754
     81 H40        71.6965   59.7315   16.5648 H         1 NE7         0.1873
     82 H41        71.1937   58.5745   13.2648 H         1 NE7         0.2100
     83 H42        65.8701   50.4358   10.6341 H         1 NE7         0.2130
@<TRIPOS>BOND
     1    1    2 1  
     2   16    1 1  
     3    1   35 1  
     4    2    8 1  
     5    2   32 1  
     6   32    3 am 
     7    3   36 2  
     8    3   37 1  
     9    4    5 1  
    10    4   17 1  
    11   37    4 1  
    12    5   38 1  
    13   17    6 1  
    14    6   38 1  
    15    6   39 1  
    16   18    7 1  
    17    7   39 1  
    18    8   19 1  
    19   10    9 ar 
    20   14    9 ar 
    21    9   30 1  
    22   11   10 ar 
    23   12   11 ar 
    24   12   13 ar 
    25   41   12 1  
    26   13   14 ar 
    27   15   27 1  
    28   31   15 1  
    29   31   16 1  
    30   17   18 1  
    31   19   20 ar 
    32   19   24 ar 
    33   20   21 ar 
    34   21   22 ar 
    35   23   22 ar 
    36   24   23 ar 
    37   30   25 1  
    38   28   26 1  
    39   27   28 1  
    40   27   29 1  
    41   30   40 1  
    42   31   41 am 
    43   41   33 2  
    44   41   34 2  
    45    1   42 1  
    46    2   43 1  
    47    4   44 1  
    48    5   45 1  
    49    5   46 1  
    50    6   47 1  
    51    7   48 1  
    52    7   49 1  
    53    8   50 1  
    54    8   51 1  
    55   10   52 1  
    56   11   53 1  
    57   13   54 1  
    58   14   55 1  
    59   15   56 1  
    60   15   57 1  
    61   16   58 1  
    62   16   59 1  
    63   17   60 1  
    64   18   61 1  
    65   18   62 1  
    66   20   63 1  
    67   21   64 1  
    68   22   65 1  
    69   23   66 1  
    70   24   67 1  
    71   25   68 1  
    72   25   69 1  
    73   25   70 1  
    74   26   71 1  
    75   26   72 1  
    76   26   73 1  
    77   27   74 1  
    78   28   75 1  
    79   28   76 1  
    80   29   77 1  
    81   29   78 1  
    82   29   79 1  
    83   30   80 1  
    84   32   81 1  
    85   35   82 1  
    86   40   83 1  
@<TRIPOS>SUBSTRUCTURE
     1 NE7         1

