### 
### Created by X-TOOL on Mon Aug  2 16:15:52 2021
### 

@<TRIPOS>MOLECULE
6oxv_ligand
   86    89     1     0     0
SMALL
GAST_HUCK


@<TRIPOS>ATOM
      1 C13        73.3300   53.8220   13.0580 C.3       1 NF4        -0.0516
      2 C15        70.0450   56.9890   14.1830 C.3       1 NF4         0.0578
      3 C20        72.6280   58.9180   17.6970 C.2       1 NF4         0.3203
      4 C24        75.6400   60.2820   18.6560 C.3       1 NF4         0.0815
      5 C26        74.0580   60.8050   20.2430 C.3       1 NF4         0.0449
      6 C28        72.4390   60.9510   20.2410 C.3       1 NF4        -0.0191
      7 C01        66.3640   52.4880   13.0220 C.ar      1 NF4        -0.0149
      8 C02        66.1750   53.9750   13.0950 C.ar      1 NF4        -0.0560
      9 C03        67.0930   54.7970   13.9830 C.ar      1 NF4        -0.0419
     10 C04        68.1490   54.0570   14.7850 C.ar      1 NF4         0.1013
     11 C05        68.3440   52.5640   14.7180 C.ar      1 NF4        -0.0419
     12 C06        67.4340   51.7650   13.8050 C.ar      1 NF4        -0.0560
     13 C11        71.1270   54.7100   13.9130 C.3       1 NF4         0.0324
     14 C12        72.6570   54.8530   13.9950 C.3       1 NF4        -0.0244
     15 C14        73.0600   54.7440   15.4660 C.3       1 NF4        -0.0516
     16 C16        70.9930   58.0610   14.7280 C.3       1 NF4         0.0967
     17 C18        70.6390   58.3880   16.1870 C.3       1 NF4         0.0807
     18 C23        74.5500   59.8200   19.0390 C.3       1 NF4         0.1189
     19 C27        74.5400   61.9360   20.0000 C.3       1 NF4         0.1648
     20 C29        72.1480   62.0260   19.5150 C.3       1 NF4         0.0512
     21 C31        69.3210   59.1630   16.2700 C.3       1 NF4         0.0064
     22 C32        69.0650   59.5440   17.7410 C.ar      1 NF4        -0.0408
     23 C33        68.7130   58.4740   18.7530 C.ar      1 NF4        -0.0603
     24 C34        68.4710   58.8290   20.2060 C.ar      1 NF4        -0.0686
     25 C35        68.5540   60.2710   20.6470 C.ar      1 NF4        -0.0687
     26 C36        68.8890   61.3440   19.6400 C.ar      1 NF4        -0.0686
     27 C37        69.1430   60.9870   18.1800 C.ar      1 NF4        -0.0603
     28 C38        65.4410   51.7190   12.0870 C.3       1 NF4         0.0862
     29 C39        65.2350   50.3100   12.6070 C.3       1 NF4        -0.0288
     30 C41        74.5730   54.7750   15.7200 C.3       1 NF4        -0.0650
     31 C42        72.9690   52.3950   13.4450 C.3       1 NF4        -0.0650
     32 N10        70.4260   55.6860   14.7650 N.am      1 NF4        -0.2320
     33 N19        71.6370   59.2850   16.7070 N.am      1 NF4        -0.2550
     34 O08        69.8760   54.1820   16.8160 O.2       1 NF4        -0.1510
     35 O09        68.4490   56.1090   16.4230 O.2       1 NF4        -0.1510
     36 O17        70.9060   59.2160   13.9550 O.3       1 NF4        -0.3877
     37 O21        72.6430   57.8660   18.2730 O.2       1 NF4        -0.3775
     38 O22        73.5710   59.9290   17.9130 O.3       1 NF4        -0.2578
     39 O25        75.5310   61.7910   18.8620 O.3       1 NF4        -0.3480
     40 O30        73.3700   62.8550   19.4900 O.3       1 NF4        -0.3509
     41 O40        66.1180   51.7350   10.8780 O.3       1 NF4        -0.3796
     42 S07        69.2280   55.0420   15.8170 S.o2      1 NF4         0.0676
     43 H1         74.4216   53.9432   13.1189 H         1 NF4         0.0266
     44 H2         72.9976   54.0070   12.0259 H         1 NF4         0.0266
     45 H3         70.1269   56.9439   13.0870 H         1 NF4         0.0504
     46 H4         69.0096   57.2320   14.4637 H         1 NF4         0.0504
     47 H5         75.8057   60.0489   17.5938 H         1 NF4         0.0590
     48 H6         76.4654   59.8698   19.2550 H         1 NF4         0.0590
     49 H7         74.4056   60.4269   21.2157 H         1 NF4         0.0380
     50 H8         72.0696   61.0780   21.2693 H         1 NF4         0.0293
     51 H9         71.9793   60.0572   19.7940 H         1 NF4         0.0293
     52 H10        65.3922   54.4569   12.5205 H         1 NF4         0.0558
     53 H11        66.9976   55.8752   14.0422 H         1 NF4         0.0619
     54 H12        69.1127   52.0752   15.3056 H         1 NF4         0.0619
     55 H13        67.5499   50.6909   13.7158 H         1 NF4         0.0558
     56 H14        70.8491   53.6957   14.2354 H         1 NF4         0.0481
     57 H15        70.8132   54.8621   12.8697 H         1 NF4         0.0481
     58 H16        72.9403   55.8553   13.6413 H         1 NF4         0.0316
     59 H17        72.6658   53.7957   15.8600 H         1 NF4         0.0266
     60 H18        72.6040   55.5847   16.0095 H         1 NF4         0.0266
     61 H19        72.0238   57.6794   14.6866 H         1 NF4         0.0634
     62 H20        70.5856   57.4631   16.7800 H         1 NF4         0.0604
     63 H21        74.6473   58.7787   19.3799 H         1 NF4         0.0675
     64 H22        75.0206   62.3617   20.8932 H         1 NF4         0.0913
     65 H23        71.3194   62.5836   19.9759 H         1 NF4         0.0561
     66 H24        71.8677   61.7306   18.4932 H         1 NF4         0.0561
     67 H25        68.4974   58.5336   15.9018 H         1 NF4         0.0449
     68 H26        69.3880   60.0744   15.6577 H         1 NF4         0.0449
     69 H27        68.6331   57.4411   18.4339 H         1 NF4         0.0557
     70 H28        68.2395   58.0518   20.9254 H         1 NF4         0.0599
     71 H29        68.3736   60.5343   21.6829 H         1 NF4         0.0559
     72 H30        68.9496   62.3785   19.9580 H         1 NF4         0.0599
     73 H31        69.3781   61.7638   17.4614 H         1 NF4         0.0557
     74 H32        64.4662   52.2197   11.9925 H         1 NF4         0.0754
     75 H33        64.5674   49.7618   11.9260 H         1 NF4         0.0277
     76 H34        64.7830   50.3513   13.6090 H         1 NF4         0.0277
     77 H35        66.2050   49.7944   12.6633 H         1 NF4         0.0277
     78 H36        74.7653   54.6914   16.7998 H         1 NF4         0.0230
     79 H37        74.9883   55.7224   15.3459 H         1 NF4         0.0230
     80 H38        75.0500   53.9334   15.1964 H         1 NF4         0.0230
     81 H39        73.4644   51.6925   12.7586 H         1 NF4         0.0230
     82 H40        71.8789   52.2624   13.3815 H         1 NF4         0.0230
     83 H41        73.3029   52.1986   14.4745 H         1 NF4         0.0230
     84 H42        71.6468   60.2235   16.3619 H         1 NF4         0.1873
     85 H43        71.1255   59.0100   13.0540 H         1 NF4         0.2100
     86 H44        65.6195   51.2502   10.2308 H         1 NF4         0.2130
@<TRIPOS>BOND
     1   14    1 1  
     2    1   31 1  
     3    2   16 1  
     4   32    2 1  
     5   33    3 am 
     6    3   37 2  
     7    3   38 1  
     8   18    4 1  
     9    4   39 1  
    10    5    6 1  
    11   18    5 1  
    12    5   19 1  
    13    6   20 1  
    14    8    7 ar 
    15   12    7 ar 
    16    7   28 1  
    17    9    8 ar 
    18   10    9 ar 
    19   10   11 ar 
    20   42   10 1  
    21   11   12 ar 
    22   13   14 1  
    23   32   13 1  
    24   14   15 1  
    25   15   30 1  
    26   16   17 1  
    27   16   36 1  
    28   17   21 1  
    29   17   33 1  
    30   38   18 1  
    31   19   39 1  
    32   19   40 1  
    33   40   20 1  
    34   21   22 1  
    35   22   23 ar 
    36   22   27 ar 
    37   23   24 ar 
    38   24   25 ar 
    39   26   25 ar 
    40   27   26 ar 
    41   28   29 1  
    42   28   41 1  
    43   32   42 am 
    44   42   34 2  
    45   42   35 2  
    46    1   43 1  
    47    1   44 1  
    48    2   45 1  
    49    2   46 1  
    50    4   47 1  
    51    4   48 1  
    52    5   49 1  
    53    6   50 1  
    54    6   51 1  
    55    8   52 1  
    56    9   53 1  
    57   11   54 1  
    58   12   55 1  
    59   13   56 1  
    60   13   57 1  
    61   14   58 1  
    62   15   59 1  
    63   15   60 1  
    64   16   61 1  
    65   17   62 1  
    66   18   63 1  
    67   19   64 1  
    68   20   65 1  
    69   20   66 1  
    70   21   67 1  
    71   21   68 1  
    72   23   69 1  
    73   24   70 1  
    74   25   71 1  
    75   26   72 1  
    76   27   73 1  
    77   28   74 1  
    78   29   75 1  
    79   29   76 1  
    80   29   77 1  
    81   30   78 1  
    82   30   79 1  
    83   30   80 1  
    84   31   81 1  
    85   31   82 1  
    86   31   83 1  
    87   33   84 1  
    88   36   85 1  
    89   41   86 1  
@<TRIPOS>SUBSTRUCTURE
     1 NF4         1

