### 
### Created by X-TOOL on Mon Aug  2 16:15:52 2021
### 

@<TRIPOS>MOLECULE
6oxw_ligand
   98   101     1     0     0
SMALL
GAST_HUCK


@<TRIPOS>ATOM
      1 C13        73.4460   53.9410   13.0870 C.3       1 NFJ        -0.0516
      2 C15        70.1120   57.1200   14.0460 C.3       1 NFJ         0.0574
      3 C20        72.7090   59.0330   17.5990 C.2       1 NFJ         0.3201
      4 C24        75.8840   60.4670   18.8400 C.3       1 NFJ         0.0815
      5 C26        74.0310   60.6630   20.1750 C.3       1 NFJ         0.0449
      6 C28        72.7010   60.8850   20.2010 C.3       1 NFJ        -0.0191
      7 C01        66.4800   52.2320   12.9740 C.3       1 NFJ        -0.0151
      8 C02        67.5290   51.6150   13.9200 C.3       1 NFJ        -0.0461
      9 C03        68.3860   52.5340   14.8000 C.3       1 NFJ        -0.0286
     10 C04        68.1800   54.0430   14.7290 C.3       1 NFJ         0.0957
     11 C05        67.1290   54.6730   13.7650 C.3       1 NFJ        -0.0286
     12 C06        66.2840   53.7650   12.8990 C.3       1 NFJ        -0.0461
     13 C11        71.1550   54.8100   13.8590 C.3       1 NFJ         0.0322
     14 C12        72.7190   54.9320   14.0440 C.3       1 NFJ        -0.0244
     15 C14        73.1090   54.6590   15.5550 C.3       1 NFJ        -0.0516
     16 C16        71.0240   58.1910   14.6290 C.3       1 NFJ         0.0949
     17 C18        70.6620   58.4720   16.0850 C.3       1 NFJ         0.0715
     18 C23        74.4670   59.8890   19.1700 C.3       1 NFJ         0.1189
     19 C27        74.6690   62.0660   19.9000 C.3       1 NFJ         0.1648
     20 C29        72.4310   62.1480   19.3210 C.3       1 NFJ         0.0512
     21 C31        69.3050   59.1600   16.2080 C.3       1 NFJ        -0.0246
     22 C32        69.0910   59.5860   17.7260 C.3       1 NFJ        -0.0389
     23 C33        69.1660   61.0650   18.1300 C.3       1 NFJ        -0.0501
     24 C34        68.9560   61.4730   19.6050 C.3       1 NFJ        -0.0528
     25 C35        68.6700   60.3990   20.6650 C.3       1 NFJ        -0.0530
     26 C36        68.5940   58.9190   20.2590 C.3       1 NFJ        -0.0528
     27 C37        68.8040   58.5120   18.7870 C.3       1 NFJ        -0.0501
     28 C38        64.1340   51.6670   12.3560 C.3       1 NFJ        -0.0387
     29 C39        74.6530   54.9030   15.7440 C.3       1 NFJ        -0.0650
     30 C40        73.1650   52.4770   13.4650 C.3       1 NFJ        -0.0650
     31 C41        65.6230   51.3380   12.0930 C.3       1 NFJ         0.0553
     32 N10        70.4480   55.8080   14.6870 N.am      1 NFJ        -0.2354
     33 N19        71.6690   59.4240   16.6020 N.am      1 NFJ        -0.2569
     34 O08        69.8600   54.4100   16.9210 O.2       1 NFJ        -0.1550
     35 O09        68.4590   56.2150   16.4480 O.2       1 NFJ        -0.1550
     36 O17        70.9050   59.3850   13.8780 O.3       1 NFJ        -0.3879
     37 O21        72.7300   57.9480   18.1050 O.2       1 NFJ        -0.3775
     38 O22        73.6580   60.0310   17.9150 O.3       1 NFJ        -0.2578
     39 O25        75.6900   61.8300   18.8290 O.3       1 NFJ        -0.3480
     40 O30        73.5550   62.9480   19.4350 O.3       1 NFJ        -0.3509
     41 O42        65.9440   51.5970   10.7770 O.3       1 NFJ        -0.3918
     42 S07        69.2410   55.1590   15.7880 S.o2      1 NFJ         0.0443
     43 H1         74.5296   54.1219   13.1423 H         1 NFJ         0.0266
     44 H2         73.0969   54.1171   12.0589 H         1 NFJ         0.0266
     45 H3         70.2670   57.0522   12.9591 H         1 NFJ         0.0504
     46 H4         69.0619   57.3750   14.2514 H         1 NFJ         0.0504
     47 H5         76.2324   60.1132   17.8585 H         1 NFJ         0.0590
     48 H6         76.6130   60.1815   19.6126 H         1 NFJ         0.0590
     49 H7         74.3573   60.2432   21.1380 H         1 NFJ         0.0380
     50 H8         72.3684   61.0661   21.2337 H         1 NFJ         0.0293
     51 H9         72.1650   60.0168   19.7901 H         1 NFJ         0.0293
     52 H10        65.7276   52.1725   13.7742 H         1 NFJ         0.0326
     53 H11        68.2222   51.0342   13.2938 H         1 NFJ         0.0269
     54 H12        66.9895   50.9361   14.5968 H         1 NFJ         0.0269
     55 H13        69.4365   52.3413   14.5369 H         1 NFJ         0.0284
     56 H14        68.2086   52.2351   15.8436 H         1 NFJ         0.0284
     57 H15        67.4231   53.9839   15.5250 H         1 NFJ         0.0554
     58 H16        67.6764   55.3449   13.0876 H         1 NFJ         0.0284
     59 H17        66.4366   55.2615   14.3848 H         1 NFJ         0.0284
     60 H18        65.2337   53.9651   13.1573 H         1 NFJ         0.0269
     61 H19        66.4673   54.0591   11.8550 H         1 NFJ         0.0269
     62 H20        70.8343   53.8013   14.1583 H         1 NFJ         0.0481
     63 H21        70.9032   54.9760   12.8012 H         1 NFJ         0.0481
     64 H22        73.0262   55.9559   13.7846 H         1 NFJ         0.0316
     65 H23        72.8666   53.6181   15.8151 H         1 NFJ         0.0266
     66 H24        72.5461   55.3411   16.2092 H         1 NFJ         0.0266
     67 H25        72.0644   57.8371   14.5810 H         1 NFJ         0.0632
     68 H26        70.6665   57.5364   16.6634 H         1 NFJ         0.0581
     69 H27        74.5087   58.8345   19.4801 H         1 NFJ         0.0675
     70 H28        75.1411   62.4856   20.8006 H         1 NFJ         0.0913
     71 H29        71.5430   62.6844   19.6867 H         1 NFJ         0.0561
     72 H30        72.2765   61.8555   18.2719 H         1 NFJ         0.0561
     73 H31        68.5081   58.4665   15.9014 H         1 NFJ         0.0291
     74 H32        69.2818   60.0524   15.5654 H         1 NFJ         0.0291
     75 H33        70.1705   59.4809   17.9091 H         1 NFJ         0.0301
     76 H34        68.4017   61.5942   17.5420 H         1 NFJ         0.0268
     77 H35        70.1648   61.4234   17.8403 H         1 NFJ         0.0268
     78 H36        68.1066   62.1717   19.6235 H         1 NFJ         0.0265
     79 H37        69.8692   61.9975   19.9226 H         1 NFJ         0.0265
     80 H38        67.7018   60.6531   21.1212 H         1 NFJ         0.0265
     81 H39        69.4644   60.4802   21.4215 H         1 NFJ         0.0265
     82 H40        67.5947   58.5613   20.5479 H         1 NFJ         0.0265
     83 H41        69.3575   58.3887   20.8471 H         1 NFJ         0.0265
     84 H42        69.6531   57.8130   18.7690 H         1 NFJ         0.0268
     85 H43        67.8907   57.9878   18.4692 H         1 NFJ         0.0268
     86 H44        63.5001   51.0270   11.7247 H         1 NFJ         0.0255
     87 H45        63.9438   52.7233   12.1151 H         1 NFJ         0.0255
     88 H46        63.8997   51.4845   13.4151 H         1 NFJ         0.0255
     89 H47        74.9284   54.7145   16.7922 H         1 NFJ         0.0230
     90 H48        74.8944   55.9440   15.4830 H         1 NFJ         0.0230
     91 H49        75.2149   54.2210   15.0890 H         1 NFJ         0.0230
     92 H50        73.6942   51.8104   12.7682 H         1 NFJ         0.0230
     93 H51        72.0836   52.2843   13.4068 H         1 NFJ         0.0230
     94 H52        73.5163   52.2891   14.4903 H         1 NFJ         0.0230
     95 H53        65.8165   50.2800   12.3234 H         1 NFJ         0.0593
     96 H54        71.6525   60.3673   16.2704 H         1 NFJ         0.1871
     97 H55        71.1301   59.2114   12.9716 H         1 NFJ         0.2099
     98 H56        65.4022   51.0621   10.2089 H         1 NFJ         0.2098
@<TRIPOS>BOND
     1   14    1 1  
     2    1   30 1  
     3    2   16 1  
     4   32    2 1  
     5   33    3 am 
     6    3   37 2  
     7    3   38 1  
     8   18    4 1  
     9    4   39 1  
    10    5    6 1  
    11   18    5 1  
    12    5   19 1  
    13    6   20 1  
    14    8    7 1  
    15   12    7 1  
    16    7   31 1  
    17    9    8 1  
    18   10    9 1  
    19   10   11 1  
    20   42   10 1  
    21   11   12 1  
    22   13   14 1  
    23   32   13 1  
    24   14   15 1  
    25   15   29 1  
    26   16   17 1  
    27   16   36 1  
    28   17   21 1  
    29   17   33 1  
    30   38   18 1  
    31   19   39 1  
    32   19   40 1  
    33   40   20 1  
    34   21   22 1  
    35   22   23 1  
    36   22   27 1  
    37   23   24 1  
    38   24   25 1  
    39   26   25 1  
    40   27   26 1  
    41   31   28 1  
    42   31   41 1  
    43   32   42 am 
    44   42   34 2  
    45   42   35 2  
    46    1   43 1  
    47    1   44 1  
    48    2   45 1  
    49    2   46 1  
    50    4   47 1  
    51    4   48 1  
    52    5   49 1  
    53    6   50 1  
    54    6   51 1  
    55    7   52 1  
    56    8   53 1  
    57    8   54 1  
    58    9   55 1  
    59    9   56 1  
    60   10   57 1  
    61   11   58 1  
    62   11   59 1  
    63   12   60 1  
    64   12   61 1  
    65   13   62 1  
    66   13   63 1  
    67   14   64 1  
    68   15   65 1  
    69   15   66 1  
    70   16   67 1  
    71   17   68 1  
    72   18   69 1  
    73   19   70 1  
    74   20   71 1  
    75   20   72 1  
    76   21   73 1  
    77   21   74 1  
    78   22   75 1  
    79   23   76 1  
    80   23   77 1  
    81   24   78 1  
    82   24   79 1  
    83   25   80 1  
    84   25   81 1  
    85   26   82 1  
    86   26   83 1  
    87   27   84 1  
    88   27   85 1  
    89   28   86 1  
    90   28   87 1  
    91   28   88 1  
    92   29   89 1  
    93   29   90 1  
    94   29   91 1  
    95   30   92 1  
    96   30   93 1  
    97   30   94 1  
    98   31   95 1  
    99   33   96 1  
   100   36   97 1  
   101   41   98 1  
@<TRIPOS>SUBSTRUCTURE
     1 NFJ         1

