### 
### Created by X-TOOL on Mon Aug  2 16:15:52 2021
### 

@<TRIPOS>MOLECULE
6oxx_ligand
   87    90     1     0     0
SMALL
GAST_HUCK


@<TRIPOS>ATOM
      1 C13        71.0470   57.6330   15.1580 C.3       1 NF7         0.0949
      2 C15        70.6830   57.9830   16.6240 C.3       1 NF7         0.0715
      3 C17        72.6450   58.6060   18.1680 C.2       1 NF7         0.3201
      4 C20        74.2910   59.6690   19.6530 C.3       1 NF7         0.1189
      5 C21        75.7430   60.2820   19.2080 C.3       1 NF7         0.0815
      6 C24        74.4590   61.9260   20.1600 C.3       1 NF7         0.1648
      7 C26        72.1280   61.8040   19.8460 C.3       1 NF7         0.0512
      8 C28        69.3130   58.6620   16.7130 C.3       1 NF7        -0.0246
      9 C01        67.3120   51.3450   13.5790 C.ar      1 NF7        -0.0125
     10 C02        66.8700   52.7960   13.4370 C.ar      1 NF7        -0.0560
     11 C03        67.5070   53.8390   14.3600 C.ar      1 NF7        -0.0419
     12 C04        68.5320   53.3710   15.3490 C.ar      1 NF7         0.1013
     13 C05        68.9890   51.9190   15.4800 C.ar      1 NF7        -0.0419
     14 C06        68.3690   50.8880   14.5630 C.ar      1 NF7        -0.0560
     15 C11        71.4190   54.2380   14.7100 C.3       1 NF7         0.0320
     16 C12        70.1790   56.4820   14.6610 C.3       1 NF7         0.0577
     17 C23        73.8500   60.5230   20.5720 C.3       1 NF7         0.0449
     18 C25        72.3600   60.7490   20.5880 C.3       1 NF7        -0.0191
     19 C29        69.0510   59.0850   18.1800 C.3       1 NF7        -0.0389
     20 C30        69.1930   60.5510   18.5890 C.3       1 NF7        -0.0501
     21 C31        68.9370   60.9680   20.0260 C.3       1 NF7        -0.0528
     22 C32        68.5310   59.9160   21.0790 C.3       1 NF7        -0.0530
     23 C33        68.3890   58.4380   20.6700 C.3       1 NF7        -0.0528
     24 C34        68.6350   58.0210   19.2410 C.3       1 NF7        -0.0501
     25 C35        67.8920   49.8200   11.8330 C.3       1 NF7         0.0799
     26 C36        72.9560   54.6360   14.7530 C.3       1 NF7        -0.0296
     27 C37        73.4670   54.6190   16.1900 C.3       1 NF7        -0.0612
     28 C38        66.7080   50.3060   12.6340 C.3       1 NF7         0.1120
     29 C40        73.7570   53.5910   13.9230 C.3       1 NF7        -0.0612
     30 N10        70.5720   55.2490   15.4150 N.am      1 NF7        -0.2320
     31 N16        71.6680   58.9200   17.0700 N.am      1 NF7        -0.2569
     32 O08        68.4010   55.5960   16.9370 O.2       1 NF7        -0.1510
     33 O09        69.9160   53.9090   17.6090 O.2       1 NF7        -0.1510
     34 O14        70.8430   58.7450   14.3600 O.3       1 NF7        -0.3879
     35 O18        72.6730   57.5510   18.7470 O.2       1 NF7        -0.3775
     36 O19        73.5110   59.6810   18.4450 O.3       1 NF7        -0.2578
     37 O22        75.5040   61.5890   19.0650 O.3       1 NF7        -0.3480
     38 O27        73.5320   62.6260   19.6820 O.3       1 NF7        -0.3509
     39 O39        65.8280   50.9740   11.8000 O.3       1 NF7        -0.3770
     40 O41        68.6650   50.9240   11.4490 O.3       1 NF7        -0.3904
     41 S07        69.3450   54.5900   16.4430 S.o2      1 NF7         0.0676
     42 H1         72.1050   57.3363   15.1075 H         1 NF7         0.0632
     43 H2         70.6930   57.0756   17.2458 H         1 NF7         0.0581
     44 H3         74.3643   58.6510   20.0632 H         1 NF7         0.0675
     45 H4         76.0820   59.8391   18.2599 H         1 NF7         0.0590
     46 H5         76.4992   60.1044   19.9868 H         1 NF7         0.0590
     47 H6         74.9269   62.4354   21.0153 H         1 NF7         0.0913
     48 H7         71.3758   62.4434   20.3311 H         1 NF7         0.0561
     49 H8         71.7609   61.4915   18.8573 H         1 NF7         0.0561
     50 H9         68.5318   57.9594   16.3872 H         1 NF7         0.0291
     51 H10        69.2998   59.5511   16.0654 H         1 NF7         0.0291
     52 H11        66.1254   53.0822   12.7031 H         1 NF7         0.0558
     53 H12        67.2253   54.8840   14.3000 H         1 NF7         0.0619
     54 H13        69.7377   51.6351   16.2107 H         1 NF7         0.0619
     55 H14        68.6734   49.8486   14.6089 H         1 NF7         0.0558
     56 H15        71.2890   53.2604   15.1972 H         1 NF7         0.0480
     57 H16        71.0963   54.1705   13.6606 H         1 NF7         0.0480
     58 H17        70.3421   56.3291   13.5840 H         1 NF7         0.0504
     59 H18        69.1181   56.7087   14.8427 H         1 NF7         0.0504
     60 H19        74.1894   60.2033   21.5683 H         1 NF7         0.0380
     61 H20        71.8399   59.8729   20.1734 H         1 NF7         0.0293
     62 H21        72.0153   60.9270   21.6173 H         1 NF7         0.0293
     63 H22        70.1105   58.9126   18.4201 H         1 NF7         0.0301
     64 H23        68.4933   61.1242   17.9630 H         1 NF7         0.0268
     65 H24        70.2252   60.8480   18.3517 H         1 NF7         0.0268
     66 H25        68.1315   61.7167   19.9997 H         1 NF7         0.0265
     67 H26        69.8629   61.4381   20.3889 H         1 NF7         0.0265
     68 H27        67.5571   60.2294   21.4832 H         1 NF7         0.0265
     69 H28        69.2883   59.9544   21.8759 H         1 NF7         0.0265
     70 H29        67.3591   58.1389   20.9146 H         1 NF7         0.0265
     71 H30        69.0941   57.8677   21.2925 H         1 NF7         0.0265
     72 H31        69.4342   57.2655   19.2636 H         1 NF7         0.0268
     73 H32        67.7041   57.5594   18.8800 H         1 NF7         0.0268
     74 H33        67.5385   49.2876   10.9377 H         1 NF7         0.0606
     75 H34        68.4997   49.1399   12.4480 H         1 NF7         0.0606
     76 H35        73.0912   55.6401   14.3248 H         1 NF7         0.0311
     77 H36        74.5314   54.8963   16.2039 H         1 NF7         0.0233
     78 H37        73.3455   53.6098   16.6105 H         1 NF7         0.0233
     79 H38        72.8928   55.3387   16.7919 H         1 NF7         0.0233
     80 H39        66.2078   49.4868   13.1713 H         1 NF7         0.0781
     81 H40        73.3968   53.5943   12.8837 H         1 NF7         0.0233
     82 H41        73.6143   52.5905   14.3573 H         1 NF7         0.0233
     83 H42        74.8260   53.8497   13.9413 H         1 NF7         0.0233
     84 H43        71.7079   59.8191   16.6340 H         1 NF7         0.1871
     85 H44        71.0765   58.5368   13.4630 H         1 NF7         0.2099
     86 H45        65.5287   50.3832   11.1189 H         1 NF7         0.2131
     87 H46        68.1372   51.5099   10.9192 H         1 NF7         0.2097
@<TRIPOS>BOND
     1    1    2 1  
     2   16    1 1  
     3    1   34 1  
     4    2    8 1  
     5    2   31 1  
     6   31    3 am 
     7    3   35 2  
     8    3   36 1  
     9    4    5 1  
    10    4   17 1  
    11   36    4 1  
    12    5   37 1  
    13   17    6 1  
    14    6   37 1  
    15    6   38 1  
    16   18    7 1  
    17    7   38 1  
    18    8   19 1  
    19   10    9 ar 
    20   14    9 ar 
    21    9   28 1  
    22   11   10 ar 
    23   12   11 ar 
    24   12   13 ar 
    25   41   12 1  
    26   13   14 ar 
    27   15   26 1  
    28   30   15 1  
    29   30   16 1  
    30   17   18 1  
    31   19   20 1  
    32   19   24 1  
    33   20   21 1  
    34   21   22 1  
    35   23   22 1  
    36   24   23 1  
    37   28   25 1  
    38   25   40 1  
    39   26   27 1  
    40   26   29 1  
    41   28   39 1  
    42   30   41 am 
    43   41   32 2  
    44   41   33 2  
    45    1   42 1  
    46    2   43 1  
    47    4   44 1  
    48    5   45 1  
    49    5   46 1  
    50    6   47 1  
    51    7   48 1  
    52    7   49 1  
    53    8   50 1  
    54    8   51 1  
    55   10   52 1  
    56   11   53 1  
    57   13   54 1  
    58   14   55 1  
    59   15   56 1  
    60   15   57 1  
    61   16   58 1  
    62   16   59 1  
    63   17   60 1  
    64   18   61 1  
    65   18   62 1  
    66   19   63 1  
    67   20   64 1  
    68   20   65 1  
    69   21   66 1  
    70   21   67 1  
    71   22   68 1  
    72   22   69 1  
    73   23   70 1  
    74   23   71 1  
    75   24   72 1  
    76   24   73 1  
    77   25   74 1  
    78   25   75 1  
    79   26   76 1  
    80   27   77 1  
    81   27   78 1  
    82   27   79 1  
    83   28   80 1  
    84   29   81 1  
    85   29   82 1  
    86   29   83 1  
    87   31   84 1  
    88   34   85 1  
    89   39   86 1  
    90   40   87 1  
@<TRIPOS>SUBSTRUCTURE
     1 NF7         1

