### 
### Created by X-TOOL on Mon Aug  2 16:15:52 2021
### 

@<TRIPOS>MOLECULE
6oxy_ligand
   81    84     1     0     0
SMALL
GAST_HUCK


@<TRIPOS>ATOM
      1 C13        73.3730   54.6920   15.8490 C.3       1 NG4        -0.0612
      2 C15        70.1880   56.5740   14.3960 C.3       1 NG4         0.0578
      3 C20        72.6050   58.7120   17.8880 C.2       1 NG4         0.3203
      4 C24        75.5720   60.0080   18.8910 C.3       1 NG4         0.0815
      5 C26        74.0410   60.6930   20.4280 C.3       1 NG4         0.0449
      6 C28        72.4660   60.8480   20.4660 C.3       1 NG4        -0.0191
      7 C01        67.1370   51.4410   13.3800 C.ar      1 NG4        -0.0125
      8 C02        66.7880   52.9120   13.2000 C.ar      1 NG4        -0.0560
      9 C03        67.4690   53.9520   14.0630 C.ar      1 NG4        -0.0419
     10 C04        68.4820   53.4710   15.0880 C.ar      1 NG4         0.1013
     11 C05        68.8430   52.0110   15.2580 C.ar      1 NG4        -0.0419
     12 C06        68.1620   50.9770   14.3920 C.ar      1 NG4        -0.0560
     13 C11        71.3560   54.3540   14.3740 C.3       1 NG4         0.0320
     14 C12        72.8340   54.7320   14.4190 C.3       1 NG4        -0.0296
     15 C14        73.6210   53.7480   13.5490 C.3       1 NG4        -0.0612
     16 C16        71.0520   57.7130   14.9400 C.3       1 NG4         0.0967
     17 C18        70.6730   58.0620   16.3750 C.3       1 NG4         0.0807
     18 C23        74.4710   59.6320   19.2750 C.3       1 NG4         0.1189
     19 C27        74.5000   61.8030   20.0760 C.3       1 NG4         0.1648
     20 C29        72.1910   61.9740   19.4930 C.3       1 NG4         0.0512
     21 C31        69.3020   58.7340   16.4360 C.3       1 NG4         0.0064
     22 C32        69.0500   59.1420   17.8830 C.ar      1 NG4        -0.0408
     23 C33        68.6630   58.0980   18.9240 C.ar      1 NG4        -0.0603
     24 C34        68.4350   58.5300   20.3670 C.ar      1 NG4        -0.0686
     25 C35        68.5870   59.9920   20.7610 C.ar      1 NG4        -0.0687
     26 C36        68.9790   61.0270   19.7220 C.ar      1 NG4        -0.0686
     27 C37        69.2130   60.6000   18.2810 C.ar      1 NG4        -0.0603
     28 C39        66.4670   50.4100   12.4940 C.3       1 NG4         0.1120
     29 C40        65.0120   50.2290   12.8700 C.3       1 NG4         0.0799
     30 N10        70.5280   55.3300   15.0720 N.am      1 NG4        -0.2320
     31 N19        71.6330   59.0240   16.8700 N.am      1 NG4        -0.2550
     32 O08        69.9910   53.9710   17.2160 O.2       1 NG4        -0.1510
     33 O09        68.4510   55.6690   16.6590 O.2       1 NG4        -0.1510
     34 O17        70.8850   58.8500   14.1480 O.3       1 NG4        -0.3877
     35 O21        72.6380   57.6600   18.4600 O.2       1 NG4        -0.3775
     36 O22        73.5150   59.7430   18.1310 O.3       1 NG4        -0.2578
     37 O25        75.4860   61.5330   18.9670 O.3       1 NG4        -0.3480
     38 O30        73.2530   62.7090   19.4970 O.3       1 NG4        -0.3509
     39 O38        66.5530   50.9010   11.1860 O.3       1 NG4        -0.3770
     40 O41        64.4950   49.1720   12.1010 O.3       1 NG4        -0.3904
     41 S07        69.3470   54.6620   16.1060 S.o2      1 NG4         0.0676
     42 H1         74.4377   54.9686   15.8474 H         1 NG4         0.0233
     43 H2         73.2587   53.6764   16.2557 H         1 NG4         0.0233
     44 H3         72.8106   55.4023   16.4729 H         1 NG4         0.0233
     45 H4         70.3671   56.4635   13.3163 H         1 NG4         0.0504
     46 H5         69.1268   56.8057   14.5698 H         1 NG4         0.0504
     47 H6         75.7606   59.6775   17.8589 H         1 NG4         0.0590
     48 H7         76.3671   59.6275   19.5490 H         1 NG4         0.0590
     49 H8         74.4294   60.3855   21.4101 H         1 NG4         0.0380
     50 H9         72.1223   61.1112   21.4772 H         1 NG4         0.0293
     51 H10        71.9729   59.9200   20.1410 H         1 NG4         0.0293
     52 H11        66.0565   53.2124   12.4585 H         1 NG4         0.0558
     53 H12        67.2414   55.0061   13.9534 H         1 NG4         0.0619
     54 H13        69.5815   51.7107   15.9925 H         1 NG4         0.0619
     55 H14        68.4026   49.9249   14.4935 H         1 NG4         0.0558
     56 H15        71.2249   53.3707   14.8492 H         1 NG4         0.0480
     57 H16        71.0338   54.2995   13.3237 H         1 NG4         0.0480
     58 H17        72.9562   55.7500   14.0207 H         1 NG4         0.0311
     59 H18        74.6890   54.0102   13.5733 H         1 NG4         0.0233
     60 H19        73.2542   53.7998   12.5133 H         1 NG4         0.0233
     61 H20        73.4853   52.7271   13.9355 H         1 NG4         0.0233
     62 H21        72.1067   57.4017   14.9133 H         1 NG4         0.0634
     63 H22        70.6768   57.1531   16.9946 H         1 NG4         0.0604
     64 H23        74.5034   58.6032   19.6628 H         1 NG4         0.0675
     65 H24        74.9897   62.3142   20.9179 H         1 NG4         0.0913
     66 H25        71.3190   62.5590   19.8205 H         1 NG4         0.0561
     67 H26        72.0063   61.5732   18.4854 H         1 NG4         0.0561
     68 H27        68.5246   58.0300   16.1045 H         1 NG4         0.0449
     69 H28        69.2915   59.6233   15.7888 H         1 NG4         0.0449
     70 H29        68.5511   57.0578   18.6402 H         1 NG4         0.0557
     71 H30        68.1638   57.7940   21.1152 H         1 NG4         0.0599
     72 H31        68.4147   60.2954   21.7873 H         1 NG4         0.0559
     73 H32        69.0918   62.0670   20.0061 H         1 NG4         0.0599
     74 H33        69.4962   61.3360   17.5373 H         1 NG4         0.0557
     75 H34        66.9890   49.4453   12.5766 H         1 NG4         0.0781
     76 H35        64.4536   51.1528   12.6585 H         1 NG4         0.0606
     77 H36        64.9298   49.9876   13.9400 H         1 NG4         0.0606
     78 H37        71.6220   59.9483   16.4885 H         1 NG4         0.1873
     79 H38        71.1181   58.6460   13.2499 H         1 NG4         0.2100
     80 H39        66.1456   50.2837   10.5898 H         1 NG4         0.2131
     81 H40        64.5726   49.3855   11.1786 H         1 NG4         0.2097
@<TRIPOS>BOND
     1   14    1 1  
     2    2   16 1  
     3   30    2 1  
     4   31    3 am 
     5    3   35 2  
     6    3   36 1  
     7   18    4 1  
     8    4   37 1  
     9    5    6 1  
    10   18    5 1  
    11    5   19 1  
    12    6   20 1  
    13    8    7 ar 
    14   12    7 ar 
    15    7   28 1  
    16    9    8 ar 
    17   10    9 ar 
    18   10   11 ar 
    19   41   10 1  
    20   11   12 ar 
    21   13   14 1  
    22   30   13 1  
    23   14   15 1  
    24   16   17 1  
    25   16   34 1  
    26   17   21 1  
    27   17   31 1  
    28   36   18 1  
    29   19   37 1  
    30   19   38 1  
    31   38   20 1  
    32   21   22 1  
    33   22   23 ar 
    34   22   27 ar 
    35   23   24 ar 
    36   24   25 ar 
    37   26   25 ar 
    38   27   26 ar 
    39   28   29 1  
    40   28   39 1  
    41   29   40 1  
    42   30   41 am 
    43   41   32 2  
    44   41   33 2  
    45    1   42 1  
    46    1   43 1  
    47    1   44 1  
    48    2   45 1  
    49    2   46 1  
    50    4   47 1  
    51    4   48 1  
    52    5   49 1  
    53    6   50 1  
    54    6   51 1  
    55    8   52 1  
    56    9   53 1  
    57   11   54 1  
    58   12   55 1  
    59   13   56 1  
    60   13   57 1  
    61   14   58 1  
    62   15   59 1  
    63   15   60 1  
    64   15   61 1  
    65   16   62 1  
    66   17   63 1  
    67   18   64 1  
    68   19   65 1  
    69   20   66 1  
    70   20   67 1  
    71   21   68 1  
    72   21   69 1  
    73   23   70 1  
    74   24   71 1  
    75   25   72 1  
    76   26   73 1  
    77   27   74 1  
    78   28   75 1  
    79   29   76 1  
    80   29   77 1  
    81   31   78 1  
    82   34   79 1  
    83   39   80 1  
    84   40   81 1  
@<TRIPOS>SUBSTRUCTURE
     1 NG4         1

