### 
### Created by X-TOOL on Mon Aug  2 16:15:52 2021
### 

@<TRIPOS>MOLECULE
6oxz_ligand
   84    87     1     0     0
SMALL
GAST_HUCK


@<TRIPOS>ATOM
      1 C13        70.8980   57.4880   15.1410 C.3       1 NJG         0.0967
      2 C15        70.5260   57.8320   16.5800 C.3       1 NJG         0.0807
      3 C17        72.4600   58.5640   18.1020 C.2       1 NJG         0.3203
      4 C20        74.1520   59.5640   19.5930 C.3       1 NJG         0.1189
      5 C21        75.6310   60.1620   19.2050 C.3       1 NJG         0.0815
      6 C24        74.3100   61.8130   20.1230 C.3       1 NJG         0.1648
      7 C26        71.9890   61.6430   19.7450 C.3       1 NJG         0.0512
      8 C28        69.1160   58.4370   16.6720 C.3       1 NJG         0.0064
      9 C01        67.1340   51.1660   13.5460 C.ar      1 NJG        -0.0125
     10 C02        66.6800   52.6250   13.4490 C.ar      1 NJG        -0.0560
     11 C03        67.3040   53.6640   14.3850 C.ar      1 NJG        -0.0419
     12 C04        68.3520   53.2120   15.3860 C.ar      1 NJG         0.1013
     13 C05        68.8240   51.7580   15.4710 C.ar      1 NJG        -0.0419
     14 C06        68.2010   50.7260   14.5370 C.ar      1 NJG        -0.0560
     15 C11        71.2840   54.0590   14.8750 C.3       1 NJG         0.0322
     16 C12        70.0470   56.2910   14.6530 C.3       1 NJG         0.0578
     17 C23        73.7030   60.4020   20.5270 C.3       1 NJG         0.0449
     18 C25        72.2160   60.6180   20.5310 C.3       1 NJG        -0.0191
     19 C29        68.8780   58.9030   18.1350 C.ar      1 NJG        -0.0408
     20 C30        68.4950   57.8830   19.2110 C.ar      1 NJG        -0.0603
     21 C31        68.2650   58.3440   20.6560 C.ar      1 NJG        -0.0686
     22 C32        68.4180   59.8190   21.0220 C.ar      1 NJG        -0.0687
     23 C33        68.8030   60.8430   19.9430 C.ar      1 NJG        -0.0686
     24 C34        69.0340   60.3850   18.5050 C.ar      1 NJG        -0.0603
     25 C35        67.7180   49.5920   11.7940 C.3       1 NJG         0.0799
     26 C36        73.3160   51.9840   14.7690 C.3       1 NJG        -0.0650
     27 C37        72.7770   54.4540   14.9530 C.3       1 NJG        -0.0270
     28 C38        73.6160   53.3910   14.2150 C.3       1 NJG        -0.0518
     29 C39        73.2130   54.5460   16.3930 C.3       1 NJG        -0.0610
     30 C40        66.5370   50.1430   12.6100 C.3       1 NJG         0.1120
     31 N10        70.4030   55.0950   15.4970 N.am      1 NJG        -0.2320
     32 N16        71.4680   58.8440   17.0360 N.am      1 NJG        -0.2550
     33 O08        68.1890   55.4780   16.9550 O.2       1 NJG        -0.1510
     34 O09        69.6610   53.8420   17.7290 O.2       1 NJG        -0.1510
     35 O14        70.6800   58.5910   14.3140 O.3       1 NJG        -0.3877
     36 O18        72.4720   57.5330   18.6850 O.2       1 NJG        -0.3775
     37 O19        73.3800   59.6170   18.3810 O.3       1 NJG        -0.2578
     38 O22        75.4120   61.4840   19.0730 O.3       1 NJG        -0.3480
     39 O27        73.3870   62.4870   19.6110 O.3       1 NJG        -0.3509
     40 O41        65.6280   50.7880   11.7700 O.3       1 NJG        -0.3770
     41 O42        68.5030   50.6810   11.3380 O.3       1 NJG        -0.3904
     42 S07        69.1330   54.4540   16.4940 S.o2      1 NJG         0.0676
     43 H1         71.9624   57.2136   15.1007 H         1 NJG         0.0634
     44 H2         70.5873   56.9312   17.2084 H         1 NJG         0.0604
     45 H3         74.2017   58.5345   19.9771 H         1 NJG         0.0675
     46 H4         75.9954   59.7280   18.2622 H         1 NJG         0.0590
     47 H5         76.3581   59.9622   20.0058 H         1 NJG         0.0590
     48 H6         74.7352   62.3384   20.9908 H         1 NJG         0.0913
     49 H7         71.2058   62.2819   20.1791 H         1 NJG         0.0561
     50 H8         71.6674   61.2910   18.7537 H         1 NJG         0.0561
     51 H9         68.3677   57.6792   16.3970 H         1 NJG         0.0449
     52 H10        69.0351   59.2965   15.9904 H         1 NJG         0.0449
     53 H11        65.9266   52.9187   12.7271 H         1 NJG         0.0558
     54 H12        67.0027   54.7040   14.3337 H         1 NJG         0.0619
     55 H13        69.5880   51.4671   16.1829 H         1 NJG         0.0619
     56 H14        68.5153   49.6894   14.5788 H         1 NJG         0.0558
     57 H15        71.1398   53.1051   15.4034 H         1 NJG         0.0481
     58 H16        71.0019   53.9393   13.8186 H         1 NJG         0.0481
     59 H17        70.2680   56.0816   13.5960 H         1 NJG         0.0504
     60 H18        68.9775   56.5224   14.7651 H         1 NJG         0.0504
     61 H19        74.0389   60.0732   21.5215 H         1 NJG         0.0380
     62 H20        71.7007   59.7243   20.1493 H         1 NJG         0.0293
     63 H21        71.8659   60.8356   21.5508 H         1 NJG         0.0293
     64 H22        68.3865   56.8360   18.9519 H         1 NJG         0.0557
     65 H23        67.9937   57.6223   21.4180 H         1 NJG         0.0599
     66 H24        68.2549   60.1435   22.0433 H         1 NJG         0.0559
     67 H25        68.9105   61.8899   20.2026 H         1 NJG         0.0599
     68 H26        69.3085   61.1069   17.7444 H         1 NJG         0.0557
     69 H27        67.3390   49.0226   10.9325 H         1 NJG         0.0606
     70 H28        68.3307   48.9339   12.4276 H         1 NJG         0.0606
     71 H29        73.9230   51.2410   14.2309 H         1 NJG         0.0230
     72 H30        72.2490   51.7553   14.6307 H         1 NJG         0.0230
     73 H31        73.5621   51.9517   15.8406 H         1 NJG         0.0230
     74 H32        72.9208   55.4316   14.4698 H         1 NJG         0.0314
     75 H33        73.3712   53.4174   13.1429 H         1 NJG         0.0266
     76 H34        74.6843   53.6138   14.3528 H         1 NJG         0.0266
     77 H35        72.6096   55.3060   16.9109 H         1 NJG         0.0233
     78 H36        74.2752   54.8286   16.4372 H         1 NJG         0.0233
     79 H37        73.0724   53.5706   16.8817 H         1 NJG         0.0233
     80 H38        66.0360   49.3377   13.1672 H         1 NJG         0.0781
     81 H39        71.4455   59.7526   16.6190 H         1 NJG         0.1873
     82 H40        70.9272   58.3714   13.4234 H         1 NJG         0.2100
     83 H41        65.3002   50.1708   11.1264 H         1 NJG         0.2131
     84 H42        68.8268   51.1711   12.0846 H         1 NJG         0.2097
@<TRIPOS>BOND
     1    1    2 1  
     2   16    1 1  
     3    1   35 1  
     4    2    8 1  
     5    2   32 1  
     6   32    3 am 
     7    3   36 2  
     8    3   37 1  
     9    4    5 1  
    10    4   17 1  
    11   37    4 1  
    12    5   38 1  
    13   17    6 1  
    14    6   38 1  
    15    6   39 1  
    16   18    7 1  
    17    7   39 1  
    18    8   19 1  
    19   10    9 ar 
    20   14    9 ar 
    21    9   30 1  
    22   11   10 ar 
    23   12   11 ar 
    24   12   13 ar 
    25   42   12 1  
    26   13   14 ar 
    27   15   27 1  
    28   31   15 1  
    29   31   16 1  
    30   17   18 1  
    31   19   20 ar 
    32   19   24 ar 
    33   20   21 ar 
    34   21   22 ar 
    35   23   22 ar 
    36   24   23 ar 
    37   30   25 1  
    38   25   41 1  
    39   28   26 1  
    40   27   28 1  
    41   27   29 1  
    42   30   40 1  
    43   31   42 am 
    44   42   33 2  
    45   42   34 2  
    46    1   43 1  
    47    2   44 1  
    48    4   45 1  
    49    5   46 1  
    50    5   47 1  
    51    6   48 1  
    52    7   49 1  
    53    7   50 1  
    54    8   51 1  
    55    8   52 1  
    56   10   53 1  
    57   11   54 1  
    58   13   55 1  
    59   14   56 1  
    60   15   57 1  
    61   15   58 1  
    62   16   59 1  
    63   16   60 1  
    64   17   61 1  
    65   18   62 1  
    66   18   63 1  
    67   20   64 1  
    68   21   65 1  
    69   22   66 1  
    70   23   67 1  
    71   24   68 1  
    72   25   69 1  
    73   25   70 1  
    74   26   71 1  
    75   26   72 1  
    76   26   73 1  
    77   27   74 1  
    78   28   75 1  
    79   28   76 1  
    80   29   77 1  
    81   29   78 1  
    82   29   79 1  
    83   30   80 1  
    84   32   81 1  
    85   35   82 1  
    86   40   83 1  
    87   41   84 1  
@<TRIPOS>SUBSTRUCTURE
     1 NJG         1

