### 
### Created by X-TOOL on Mon Aug  2 16:15:53 2021
### 

@<TRIPOS>MOLECULE
6oy0_ligand
   96    99     1     0     0
SMALL
GAST_HUCK


@<TRIPOS>ATOM
      1 C13        71.2310   57.6900   14.9600 C.3       1 NJ7         0.0949
      2 C15        70.8490   58.0460   16.4150 C.3       1 NJ7         0.0715
      3 C17        72.7680   58.6930   17.9530 C.2       1 NJ7         0.3201
      4 C20        74.4840   59.6910   19.4570 C.3       1 NJ7         0.1189
      5 C21        75.9490   60.3190   19.0670 C.3       1 NJ7         0.0815
      6 C24        74.6460   61.9090   20.0140 C.3       1 NJ7         0.1648
      7 C26        72.3030   61.7610   19.7140 C.3       1 NJ7         0.0512
      8 C28        69.4570   58.6830   16.4720 C.3       1 NJ7        -0.0246
      9 C01        67.3060   51.3970   13.3160 C.3       1 NJ7        -0.0127
     10 C02        68.3970   50.9340   14.3150 C.3       1 NJ7        -0.0460
     11 C03        69.0600   51.9760   15.2300 C.3       1 NJ7        -0.0286
     12 C04        68.6270   53.4280   15.1350 C.3       1 NJ7         0.0957
     13 C05        67.5520   53.9000   14.1260 C.3       1 NJ7        -0.0286
     14 C06        66.8820   52.8510   13.2120 C.3       1 NJ7        -0.0460
     15 C11        71.5660   54.3020   14.4930 C.3       1 NJ7         0.0319
     16 C12        70.3370   56.5580   14.4410 C.3       1 NJ7         0.0574
     17 C23        74.0500   60.4890   20.4010 C.3       1 NJ7         0.0449
     18 C25        72.5530   60.6980   20.4380 C.3       1 NJ7        -0.0191
     19 C29        69.2260   59.1460   17.9220 C.3       1 NJ7        -0.0389
     20 C30        68.8790   58.0910   19.0330 C.3       1 NJ7        -0.0501
     21 C31        68.6610   58.5480   20.4720 C.3       1 NJ7        -0.0528
     22 C32        68.7800   60.0500   20.8320 C.3       1 NJ7        -0.0530
     23 C33        69.1260   61.0960   19.7230 C.3       1 NJ7        -0.0528
     24 C34        69.3530   60.6360   18.2760 C.3       1 NJ7        -0.0501
     25 C35        65.3480   49.9190   12.9730 C.3       1 NJ7         0.0704
     26 C36        73.7650   52.2850   14.4030 C.3       1 NJ7        -0.0650
     27 C37        73.0430   54.6880   14.5940 C.3       1 NJ7        -0.0270
     28 C38        73.8880   53.6760   13.8240 C.3       1 NJ7        -0.0518
     29 C39        73.4870   54.7640   16.0650 C.3       1 NJ7        -0.0610
     30 C40        66.6660   50.3510   12.4070 C.3       1 NJ7         0.0810
     31 N10        70.6940   55.3180   15.1850 N.am      1 NJ7        -0.2354
     32 N16        71.7830   59.0090   16.8920 N.am      1 NJ7        -0.2569
     33 O08        68.5420   55.6790   16.7140 O.2       1 NJ7        -0.1550
     34 O09        70.0250   54.0130   17.4170 O.2       1 NJ7        -0.1550
     35 O14        71.0950   58.8240   14.1530 O.3       1 NJ7        -0.3879
     36 O18        72.7940   57.6460   18.5170 O.2       1 NJ7        -0.3775
     37 O19        73.7050   59.7820   18.2530 O.3       1 NJ7        -0.2578
     38 O22        75.6830   61.6130   18.9120 O.3       1 NJ7        -0.3480
     39 O27        73.7010   62.6110   19.5730 O.3       1 NJ7        -0.3509
     40 O41        66.4990   50.9290   11.1400 O.3       1 NJ7        -0.3893
     41 O42        64.7620   49.0050   12.0960 O.3       1 NJ7        -0.3925
     42 S07        69.4550   54.6490   16.2110 S.o2      1 NJ7         0.0443
     43 H1         72.2787   57.3559   14.9353 H         1 NJ7         0.0632
     44 H2         70.8740   57.1415   17.0404 H         1 NJ7         0.0581
     45 H3         74.5445   58.6508   19.8095 H         1 NJ7         0.0675
     46 H4         76.3333   59.8791   18.1349 H         1 NJ7         0.0590
     47 H5         76.6770   60.1583   19.8758 H         1 NJ7         0.0590
     48 H6         75.1185   62.4008   20.8770 H         1 NJ7         0.0913
     49 H7         71.5377   62.3783   20.2071 H         1 NJ7         0.0561
     50 H8         71.9457   61.4602   18.7181 H         1 NJ7         0.0561
     51 H9         68.6930   57.9451   16.1860 H         1 NJ7         0.0291
     52 H10        69.4086   59.5442   15.7894 H         1 NJ7         0.0291
     53 H11        66.5305   51.2271   14.0774 H         1 NJ7         0.0326
     54 H12        69.1988   50.4678   13.7235 H         1 NJ7         0.0269
     55 H13        67.9363   50.1782   14.9681 H         1 NJ7         0.0269
     56 H14        70.1393   51.9482   15.0194 H         1 NJ7         0.0284
     57 H15        68.8802   51.6543   16.2664 H         1 NJ7         0.0284
     58 H16        67.8486   53.2572   15.8932 H         1 NJ7         0.0554
     59 H17        68.0278   54.6441   13.4703 H         1 NJ7         0.0284
     60 H18        66.7517   54.3816   14.7070 H         1 NJ7         0.0284
     61 H19        65.8025   52.8864   13.4204 H         1 NJ7         0.0269
     62 H20        67.0656   53.1655   12.1741 H         1 NJ7         0.0269
     63 H21        71.4178   53.3196   14.9651 H         1 NJ7         0.0480
     64 H22        71.2805   54.2459   13.4322 H         1 NJ7         0.0480
     65 H23        70.5073   56.4104   13.3643 H         1 NJ7         0.0504
     66 H24        69.2796   56.8069   14.6143 H         1 NJ7         0.0504
     67 H25        74.4048   60.1407   21.3822 H         1 NJ7         0.0380
     68 H26        72.0376   59.8224   20.0165 H         1 NJ7         0.0293
     69 H27        72.2180   60.8573   21.4736 H         1 NJ7         0.0293
     70 H28        68.1547   59.2834   17.7136 H         1 NJ7         0.0301
     71 H29        69.7049   57.3647   19.0514 H         1 NJ7         0.0268
     72 H30        67.9543   57.5869   18.7156 H         1 NJ7         0.0268
     73 H31        69.3972   58.0136   21.0903 H         1 NJ7         0.0265
     74 H32        67.6461   58.2326   20.7555 H         1 NJ7         0.0265
     75 H33        69.5633   60.1311   21.6000 H         1 NJ7         0.0265
     76 H34        67.8130   60.3510   21.2613 H         1 NJ7         0.0265
     77 H35        70.0477   61.6041   20.0426 H         1 NJ7         0.0265
     78 H36        68.2977   61.8194   19.6996 H         1 NJ7         0.0265
     79 H37        68.6252   61.1753   17.6520 H         1 NJ7         0.0268
     80 H38        70.3722   60.9438   17.9997 H         1 NJ7         0.0268
     81 H39        64.6909   50.7934   13.0897 H         1 NJ7         0.0583
     82 H40        65.5038   49.4440   13.9528 H         1 NJ7         0.0583
     83 H41        74.3872   51.5893   13.8210 H         1 NJ7         0.0230
     84 H42        72.7146   51.9614   14.3598 H         1 NJ7         0.0230
     85 H43        74.1037   52.2921   15.4495 H         1 NJ7         0.0230
     86 H44        73.1797   55.6798   14.1383 H         1 NJ7         0.0314
     87 H45        73.5530   53.6564   12.7764 H         1 NJ7         0.0266
     88 H46        74.9422   53.9872   13.8662 H         1 NJ7         0.0266
     89 H47        72.8650   55.4980   16.5982 H         1 NJ7         0.0233
     90 H48        74.5417   55.0725   16.1142 H         1 NJ7         0.0233
     91 H49        73.3717   53.7759   16.5344 H         1 NJ7         0.0233
     92 H50        67.3271   49.4755   12.3270 H         1 NJ7         0.0619
     93 H51        71.7740   59.9282   16.4983 H         1 NJ7         0.1871
     94 H52        71.3493   58.6103   13.2630 H         1 NJ7         0.2099
     95 H53        66.1064   50.2938   10.5527 H         1 NJ7         0.2099
     96 H54        64.6308   49.4183   11.2507 H         1 NJ7         0.2095
@<TRIPOS>BOND
     1    1    2 1  
     2   16    1 1  
     3    1   35 1  
     4    2    8 1  
     5    2   32 1  
     6   32    3 am 
     7    3   36 2  
     8    3   37 1  
     9    4    5 1  
    10    4   17 1  
    11   37    4 1  
    12    5   38 1  
    13   17    6 1  
    14    6   38 1  
    15    6   39 1  
    16   18    7 1  
    17    7   39 1  
    18    8   19 1  
    19   10    9 1  
    20   14    9 1  
    21    9   30 1  
    22   11   10 1  
    23   12   11 1  
    24   12   13 1  
    25   42   12 1  
    26   13   14 1  
    27   15   27 1  
    28   31   15 1  
    29   31   16 1  
    30   17   18 1  
    31   19   20 1  
    32   19   24 1  
    33   20   21 1  
    34   21   22 1  
    35   23   22 1  
    36   24   23 1  
    37   30   25 1  
    38   25   41 1  
    39   28   26 1  
    40   27   28 1  
    41   27   29 1  
    42   30   40 1  
    43   31   42 am 
    44   42   33 2  
    45   42   34 2  
    46    1   43 1  
    47    2   44 1  
    48    4   45 1  
    49    5   46 1  
    50    5   47 1  
    51    6   48 1  
    52    7   49 1  
    53    7   50 1  
    54    8   51 1  
    55    8   52 1  
    56    9   53 1  
    57   10   54 1  
    58   10   55 1  
    59   11   56 1  
    60   11   57 1  
    61   12   58 1  
    62   13   59 1  
    63   13   60 1  
    64   14   61 1  
    65   14   62 1  
    66   15   63 1  
    67   15   64 1  
    68   16   65 1  
    69   16   66 1  
    70   17   67 1  
    71   18   68 1  
    72   18   69 1  
    73   19   70 1  
    74   20   71 1  
    75   20   72 1  
    76   21   73 1  
    77   21   74 1  
    78   22   75 1  
    79   22   76 1  
    80   23   77 1  
    81   23   78 1  
    82   24   79 1  
    83   24   80 1  
    84   25   81 1  
    85   25   82 1  
    86   26   83 1  
    87   26   84 1  
    88   26   85 1  
    89   27   86 1  
    90   28   87 1  
    91   28   88 1  
    92   29   89 1  
    93   29   90 1  
    94   29   91 1  
    95   30   92 1  
    96   32   93 1  
    97   35   94 1  
    98   40   95 1  
    99   41   96 1  
@<TRIPOS>SUBSTRUCTURE
     1 NJ7         1

