### 
### Created by X-TOOL on Mon Aug  2 16:15:53 2021
### 

@<TRIPOS>MOLECULE
6oy1_ligand
   87    90     1     0     0
SMALL
GAST_HUCK


@<TRIPOS>ATOM
      1 C13        70.7890   57.5620   15.1240 C.3       1 NJ1         0.0967
      2 C15        70.4840   57.8970   16.5890 C.3       1 NJ1         0.0807
      3 C17        72.4470   58.4920   18.0820 C.2       1 NJ1         0.3203
      4 C20        74.3280   59.4340   19.4640 C.3       1 NJ1         0.1189
      5 C21        75.4120   59.7860   19.0370 C.3       1 NJ1         0.0815
      6 C24        74.3810   61.6330   20.1140 C.3       1 NJ1         0.1648
      7 C26        72.0530   61.8630   19.6440 C.3       1 NJ1         0.0512
      8 C28        69.1120   58.5720   16.7050 C.3       1 NJ1         0.0064
      9 C01        66.9720   51.2990   13.5180 C.ar      1 NJ1        -0.0125
     10 C02        66.4800   52.7390   13.4170 C.ar      1 NJ1        -0.0560
     11 C03        67.0890   53.7880   14.3350 C.ar      1 NJ1        -0.0419
     12 C04        68.1450   53.3110   15.2940 C.ar      1 NJ1         0.1013
     13 C05        68.6590   51.8920   15.3930 C.ar      1 NJ1        -0.0419
     14 C06        68.0630   50.8520   14.4700 C.ar      1 NJ1        -0.0560
     15 C11        71.0800   54.2220   14.5050 C.3       1 NJ1         0.0324
     16 C12        69.8220   56.4630   14.6220 C.3       1 NJ1         0.0578
     17 C23        73.8940   60.5590   20.5530 C.3       1 NJ1         0.0449
     18 C25        72.3160   60.7400   20.6230 C.3       1 NJ1        -0.0191
     19 C29        68.8820   59.0300   18.1630 C.ar      1 NJ1        -0.0408
     20 C30        68.5000   58.0030   19.2210 C.ar      1 NJ1        -0.0603
     21 C31        68.2830   58.4470   20.6660 C.ar      1 NJ1        -0.0686
     22 C32        68.4280   59.9180   21.0390 C.ar      1 NJ1        -0.0687
     23 C33        68.8020   60.9420   19.9770 C.ar      1 NJ1        -0.0686
     24 C34        69.0250   60.5040   18.5310 C.ar      1 NJ1        -0.0603
     25 C35        67.5770   49.7480   11.7730 C.3       1 NJ1         0.0799
     26 C36        74.3960   54.2060   16.6300 C.3       1 NJ1        -0.0650
     27 C37        72.2760   53.6200   15.3390 C.3       1 NJ1        -0.0244
     28 C38        73.1590   54.7590   15.9110 C.3       1 NJ1        -0.0516
     29 C39        73.0680   52.6240   14.4360 C.3       1 NJ1        -0.0516
     30 C40        66.3780   50.2890   12.5590 C.3       1 NJ1         0.1120
     31 C41        73.5470   53.3070   13.1380 C.3       1 NJ1        -0.0650
     32 N10        70.2060   55.1650   15.3030 N.am      1 NJ1        -0.2320
     33 N16        71.4920   58.8330   17.0270 N.am      1 NJ1        -0.2550
     34 O08        69.6030   53.8350   17.5210 O.2       1 NJ1        -0.1510
     35 O09        68.0800   55.5830   16.8460 O.2       1 NJ1        -0.1510
     36 O14        70.5990   58.6640   14.3280 O.3       1 NJ1        -0.3877
     37 O18        72.4310   57.4400   18.6550 O.2       1 NJ1        -0.3775
     38 O19        73.3580   59.5550   18.3280 O.3       1 NJ1        -0.2578
     39 O22        75.2770   61.3110   18.9610 O.3       1 NJ1        -0.3480
     40 O27        73.1450   62.5620   19.5770 O.3       1 NJ1        -0.3509
     41 O42        68.4360   50.8130   11.3920 O.3       1 NJ1        -0.3904
     42 O43        65.6230   50.9780   11.6450 O.3       1 NJ1        -0.3770
     43 S07        68.9730   54.5130   16.3780 S.o2      1 NJ1         0.0676
     44 H1         71.8293   57.2148   15.0392 H         1 NJ1         0.0634
     45 H2         70.5082   56.9844   17.2026 H         1 NJ1         0.0604
     46 H3         74.3518   58.4200   19.8897 H         1 NJ1         0.0675
     47 H4         75.6032   59.3565   18.0425 H         1 NJ1         0.0590
     48 H5         76.2205   59.4949   19.7238 H         1 NJ1         0.0590
     49 H6         74.9424   62.1550   20.9029 H         1 NJ1         0.0913
     50 H7         71.2226   62.4902   20.0004 H         1 NJ1         0.0561
     51 H8         71.8041   61.4527   18.6542 H         1 NJ1         0.0561
     52 H9         68.3268   57.8574   16.4175 H         1 NJ1         0.0449
     53 H10        69.0757   59.4451   16.0369 H         1 NJ1         0.0449
     54 H11        65.7101   53.0102   12.7038 H         1 NJ1         0.0558
     55 H12        66.7779   54.8258   14.2998 H         1 NJ1         0.0619
     56 H13        69.4324   51.6277   16.1050 H         1 NJ1         0.0619
     57 H14        68.4043   49.8233   14.4890 H         1 NJ1         0.0558
     58 H15        70.4562   53.3923   14.1410 H         1 NJ1         0.0481
     59 H16        71.4948   54.7724   13.6477 H         1 NJ1         0.0481
     60 H17        69.9121   56.3545   13.5311 H         1 NJ1         0.0504
     61 H18        68.7863   56.7291   14.8798 H         1 NJ1         0.0504
     62 H19        74.2914   60.3109   21.5482 H         1 NJ1         0.0380
     63 H20        71.7994   59.8191   20.3149 H         1 NJ1         0.0293
     64 H21        71.9956   61.0183   21.6378 H         1 NJ1         0.0293
     65 H22        68.3825   56.9602   18.9491 H         1 NJ1         0.0557
     66 H23        68.0262   57.7172   21.4253 H         1 NJ1         0.0599
     67 H24        68.2644   60.2352   22.0626 H         1 NJ1         0.0559
     68 H25        68.9105   61.9860   20.2479 H         1 NJ1         0.0599
     69 H26        69.2827   61.2342   17.7724 H         1 NJ1         0.0557
     70 H27        67.2168   49.2316   10.8710 H         1 NJ1         0.0606
     71 H28        68.1346   49.0395   12.4032 H         1 NJ1         0.0606
     72 H29        74.9964   55.0406   17.0212 H         1 NJ1         0.0230
     73 H30        75.0003   53.6200   15.9219 H         1 NJ1         0.0230
     74 H31        74.0785   53.5610   17.4625 H         1 NJ1         0.0230
     75 H32        71.8635   53.0560   16.1885 H         1 NJ1         0.0316
     76 H33        73.4861   55.4067   15.0843 H         1 NJ1         0.0266
     77 H34        72.5643   55.3477   16.6249 H         1 NJ1         0.0266
     78 H35        72.4147   51.7780   14.1762 H         1 NJ1         0.0266
     79 H36        73.9430   52.2546   14.9909 H         1 NJ1         0.0266
     80 H37        65.8056   49.5019   13.0716 H         1 NJ1         0.0781
     81 H38        74.1005   52.5810   12.5244 H         1 NJ1         0.0230
     82 H39        74.2052   54.1517   13.3895 H         1 NJ1         0.0230
     83 H40        72.6769   53.6751   12.5747 H         1 NJ1         0.0230
     84 H41        71.5387   59.7357   16.5993 H         1 NJ1         0.1873
     85 H42        70.7892   58.4377   13.4251 H         1 NJ1         0.2100
     86 H43        69.1743   50.4646   10.9061 H         1 NJ1         0.2097
     87 H44        66.1418   51.6819   11.2738 H         1 NJ1         0.2131
@<TRIPOS>BOND
     1    1    2 1  
     2   16    1 1  
     3    1   36 1  
     4    2    8 1  
     5    2   33 1  
     6   33    3 am 
     7    3   37 2  
     8    3   38 1  
     9    4    5 1  
    10    4   17 1  
    11   38    4 1  
    12    5   39 1  
    13   17    6 1  
    14    6   39 1  
    15    6   40 1  
    16   18    7 1  
    17    7   40 1  
    18    8   19 1  
    19   10    9 ar 
    20   14    9 ar 
    21    9   30 1  
    22   11   10 ar 
    23   12   11 ar 
    24   12   13 ar 
    25   43   12 1  
    26   13   14 ar 
    27   15   27 1  
    28   32   15 1  
    29   32   16 1  
    30   17   18 1  
    31   19   20 ar 
    32   19   24 ar 
    33   20   21 ar 
    34   21   22 ar 
    35   23   22 ar 
    36   24   23 ar 
    37   30   25 1  
    38   25   41 1  
    39   28   26 1  
    40   27   28 1  
    41   27   29 1  
    42   29   31 1  
    43   30   42 1  
    44   32   43 am 
    45   43   34 2  
    46   43   35 2  
    47    1   44 1  
    48    2   45 1  
    49    4   46 1  
    50    5   47 1  
    51    5   48 1  
    52    6   49 1  
    53    7   50 1  
    54    7   51 1  
    55    8   52 1  
    56    8   53 1  
    57   10   54 1  
    58   11   55 1  
    59   13   56 1  
    60   14   57 1  
    61   15   58 1  
    62   15   59 1  
    63   16   60 1  
    64   16   61 1  
    65   17   62 1  
    66   18   63 1  
    67   18   64 1  
    68   20   65 1  
    69   21   66 1  
    70   22   67 1  
    71   23   68 1  
    72   24   69 1  
    73   25   70 1  
    74   25   71 1  
    75   26   72 1  
    76   26   73 1  
    77   26   74 1  
    78   27   75 1  
    79   28   76 1  
    80   28   77 1  
    81   29   78 1  
    82   29   79 1  
    83   30   80 1  
    84   31   81 1  
    85   31   82 1  
    86   31   83 1  
    87   33   84 1  
    88   36   85 1  
    89   41   86 1  
    90   42   87 1  
@<TRIPOS>SUBSTRUCTURE
     1 NJ1         1

