### 
### Created by X-TOOL on Mon Aug  2 16:15:53 2021
### 

@<TRIPOS>MOLECULE
6oy2_ligand
   87    90     1     0     0
SMALL
GAST_HUCK


@<TRIPOS>ATOM
      1 C13        73.2570   54.4000   15.9100 C.3       1 NJJ        -0.0516
      2 C15        70.1970   56.6320   14.3510 C.3       1 NJJ         0.0578
      3 C20        72.7690   58.6950   17.7790 C.2       1 NJJ         0.3203
      4 C24        75.8330   59.8980   18.9410 C.3       1 NJJ         0.0815
      5 C26        74.2540   60.4580   20.3920 C.3       1 NJJ         0.0449
      6 C28        72.9240   60.6530   20.4470 C.3       1 NJJ        -0.0191
      7 C01        67.1510   51.4500   13.1330 C.ar      1 NJJ        -0.0125
      8 C02        68.1840   50.9740   14.1390 C.ar      1 NJJ        -0.0560
      9 C03        68.8610   51.9860   15.0620 C.ar      1 NJJ        -0.0419
     10 C04        68.4830   53.4520   14.9670 C.ar      1 NJJ         0.1013
     11 C05        67.4590   53.9390   13.9450 C.ar      1 NJJ        -0.0419
     12 C06        66.7850   52.9250   13.0250 C.ar      1 NJJ        -0.0560
     13 C11        71.3430   54.3530   14.2180 C.3       1 NJJ         0.0324
     14 C12        72.9210   54.5520   14.4120 C.3       1 NJJ        -0.0244
     15 C14        73.6610   53.5060   13.5090 C.3       1 NJJ        -0.0516
     16 C16        71.1140   57.7730   14.8690 C.3       1 NJJ         0.0967
     17 C18        70.7450   58.1190   16.3070 C.3       1 NJJ         0.0807
     18 C23        74.6890   59.4790   19.2380 C.3       1 NJJ         0.1189
     19 C27        74.8610   61.7920   19.9760 C.3       1 NJJ         0.1648
     20 C29        72.6060   61.9090   19.4810 C.3       1 NJJ         0.0512
     21 C31        69.3820   58.7940   16.4000 C.3       1 NJJ         0.0064
     22 C32        69.1520   59.1900   17.8990 C.ar      1 NJJ        -0.0408
     23 C33        69.3510   60.6280   18.3540 C.ar      1 NJJ        -0.0603
     24 C34        69.1290   61.0000   19.8250 C.ar      1 NJJ        -0.0686
     25 C35        68.7160   59.9300   20.8270 C.ar      1 NJJ        -0.0687
     26 C36        68.5240   58.4980   20.3730 C.ar      1 NJJ        -0.0686
     27 C37        68.7450   58.1240   18.8980 C.ar      1 NJJ        -0.0603
     28 C38        65.0810   50.1030   12.7270 C.3       1 NJJ         0.0799
     29 C39        73.3210   52.0200   13.9320 C.3       1 NJJ        -0.0650
     30 C40        74.7540   54.3290   16.1290 C.3       1 NJJ        -0.0650
     31 C41        66.4840   50.4510   12.2100 C.3       1 NJJ         0.1120
     32 N10        70.5610   55.3660   15.0380 N.am      1 NJJ        -0.2320
     33 N19        71.7350   59.0830   16.8160 N.am      1 NJJ        -0.2550
     34 O08        68.4140   55.7080   16.5910 O.2       1 NJJ        -0.1510
     35 O09        69.8920   54.0800   17.2730 O.2       1 NJJ        -0.1510
     36 O17        70.9740   58.8870   14.0540 O.3       1 NJJ        -0.3877
     37 O21        72.7480   57.6460   18.3400 O.2       1 NJJ        -0.3775
     38 O22        73.8130   59.6590   18.0080 O.3       1 NJJ        -0.2578
     39 O25        75.6480   61.5340   18.9740 O.3       1 NJJ        -0.3480
     40 O30        73.6430   62.7030   19.5620 O.3       1 NJJ        -0.3509
     41 O42        66.3920   51.0280   10.9540 O.3       1 NJJ        -0.3770
     42 O43        64.7120   48.8420   12.2290 O.3       1 NJJ        -0.3904
     43 S07        69.3350   54.6880   16.0720 S.o2      1 NJJ         0.0676
     44 H1         72.7943   53.4773   16.2901 H         1 NJJ         0.0266
     45 H2         72.8545   55.2647   16.4579 H         1 NJJ         0.0266
     46 H3         70.3327   56.5143   13.2658 H         1 NJJ         0.0504
     47 H4         69.1464   56.8781   14.5646 H         1 NJJ         0.0504
     48 H5         76.1325   59.5541   17.9400 H         1 NJJ         0.0590
     49 H6         76.5786   59.5695   19.6800 H         1 NJJ         0.0590
     50 H7         74.6317   60.1109   21.3651 H         1 NJJ         0.0380
     51 H8         72.6150   60.8786   21.4783 H         1 NJJ         0.0293
     52 H9         72.3932   59.7570   20.0929 H         1 NJJ         0.0293
     53 H10        68.4396   49.9224   14.2019 H         1 NJJ         0.0558
     54 H11        69.6054   51.6590   15.7789 H         1 NJJ         0.0619
     55 H12        67.2135   54.9924   13.8736 H         1 NJJ         0.0619
     56 H13        66.0499   53.2524   12.2987 H         1 NJJ         0.0558
     57 H14        71.0661   53.3385   14.5406 H         1 NJJ         0.0481
     58 H15        71.0924   54.4808   13.1546 H         1 NJJ         0.0481
     59 H16        73.2079   55.5634   14.0883 H         1 NJJ         0.0316
     60 H17        74.7461   53.6624   13.5990 H         1 NJJ         0.0266
     61 H18        73.3541   53.6577   12.4636 H         1 NJJ         0.0266
     62 H19        72.1607   57.4362   14.8393 H         1 NJJ         0.0634
     63 H20        70.7489   57.2038   16.9172 H         1 NJJ         0.0604
     64 H21        74.6929   58.4301   19.5693 H         1 NJJ         0.0675
     65 H22        75.4265   62.2561   20.7974 H         1 NJJ         0.0913
     66 H23        71.6988   62.4307   19.8198 H         1 NJJ         0.0561
     67 H24        72.4672   61.5675   18.4446 H         1 NJJ         0.0561
     68 H25        68.5957   58.0989   16.0706 H         1 NJJ         0.0449
     69 H26        69.3647   59.6937   15.7673 H         1 NJJ         0.0449
     70 H27        69.6489   61.3876   17.6403 H         1 NJJ         0.0557
     71 H28        69.2660   62.0245   20.1516 H         1 NJJ         0.0599
     72 H29        68.5592   60.1938   21.8667 H         1 NJJ         0.0559
     73 H30        68.2310   57.7372   21.0874 H         1 NJJ         0.0599
     74 H31        68.6100   57.0989   18.5724 H         1 NJJ         0.0557
     75 H32        64.3620   50.8608   12.3824 H         1 NJJ         0.0606
     76 H33        65.0884   50.0779   13.8267 H         1 NJJ         0.0606
     77 H34        73.8586   51.3198   13.2757 H         1 NJJ         0.0230
     78 H35        72.2380   51.8511   13.8395 H         1 NJJ         0.0230
     79 H36        73.6300   51.8558   14.9748 H         1 NJJ         0.0230
     80 H37        74.9626   54.2211   17.2036 H         1 NJJ         0.0230
     81 H38        75.2234   55.2509   15.7552 H         1 NJJ         0.0230
     82 H39        75.1632   53.4635   15.5873 H         1 NJJ         0.0230
     83 H40        67.0896   49.5344   12.1555 H         1 NJJ         0.0781
     84 H41        71.7006   60.0295   16.4953 H         1 NJJ         0.1873
     85 H42        71.2070   58.6569   13.1622 H         1 NJJ         0.2100
     86 H43        65.9789   50.4168   10.3555 H         1 NJJ         0.2131
     87 H44        64.7078   48.8667   11.2794 H         1 NJJ         0.2097
@<TRIPOS>BOND
     1   14    1 1  
     2    1   30 1  
     3    2   16 1  
     4   32    2 1  
     5   33    3 am 
     6    3   37 2  
     7    3   38 1  
     8   18    4 1  
     9    4   39 1  
    10    5    6 1  
    11   18    5 1  
    12    5   19 1  
    13    6   20 1  
    14    8    7 ar 
    15   12    7 ar 
    16    7   31 1  
    17    9    8 ar 
    18   10    9 ar 
    19   10   11 ar 
    20   43   10 1  
    21   11   12 ar 
    22   13   14 1  
    23   32   13 1  
    24   14   15 1  
    25   15   29 1  
    26   16   17 1  
    27   16   36 1  
    28   17   21 1  
    29   17   33 1  
    30   38   18 1  
    31   19   39 1  
    32   19   40 1  
    33   40   20 1  
    34   21   22 1  
    35   22   23 ar 
    36   22   27 ar 
    37   23   24 ar 
    38   24   25 ar 
    39   26   25 ar 
    40   27   26 ar 
    41   31   28 1  
    42   28   42 1  
    43   31   41 1  
    44   32   43 am 
    45   43   34 2  
    46   43   35 2  
    47    1   44 1  
    48    1   45 1  
    49    2   46 1  
    50    2   47 1  
    51    4   48 1  
    52    4   49 1  
    53    5   50 1  
    54    6   51 1  
    55    6   52 1  
    56    8   53 1  
    57    9   54 1  
    58   11   55 1  
    59   12   56 1  
    60   13   57 1  
    61   13   58 1  
    62   14   59 1  
    63   15   60 1  
    64   15   61 1  
    65   16   62 1  
    66   17   63 1  
    67   18   64 1  
    68   19   65 1  
    69   20   66 1  
    70   20   67 1  
    71   21   68 1  
    72   21   69 1  
    73   23   70 1  
    74   24   71 1  
    75   25   72 1  
    76   26   73 1  
    77   27   74 1  
    78   28   75 1  
    79   28   76 1  
    80   29   77 1  
    81   29   78 1  
    82   29   79 1  
    83   30   80 1  
    84   30   81 1  
    85   30   82 1  
    86   31   83 1  
    87   33   84 1  
    88   36   85 1  
    89   41   86 1  
    90   42   87 1  
@<TRIPOS>SUBSTRUCTURE
     1 NJJ         1

