### 
### Created by X-TOOL on Mon Aug  2 16:12:05 2021
### 

@<TRIPOS>MOLECULE
6p1d_ligand
   39    42     1     0     0
SMALL
GAST_HUCK


@<TRIPOS>ATOM
      1 C10       -40.5650  -10.7390   45.1840 C.ar      1 NQ1         0.0769
      2 C11       -40.9960  -12.0400   45.5580 C.ar      1 NQ1        -0.0521
      3 C12       -40.1250  -13.1180   45.3850 C.ar      1 NQ1        -0.0689
      4 C13       -38.8490  -12.9190   44.8380 C.ar      1 NQ1        -0.0685
      5 C14       -38.4450  -11.6440   44.4510 C.ar      1 NQ1        -0.0348
      6 C15       -41.5560   -9.5620   45.3430 C.2       1 NQ1         0.2290
      7 C01       -39.6330   -6.6800   46.9160 C.ar      1 NQ1        -0.0172
      8 C02       -38.3620   -6.1740   47.1740 C.ar      1 NQ1         0.1058
      9 C04       -37.2500   -6.6600   46.4670 C.ar      1 NQ1        -0.0543
     10 C05       -37.3990   -7.6540   45.5010 C.ar      1 NQ1        -0.0539
     11 C06       -38.7040   -8.1530   45.2390 C.ar      1 NQ1         0.0789
     12 C07       -39.7870   -7.6970   45.9350 C.ar      1 NQ1         0.0929
     13 C09       -39.3340  -10.5560   44.6220 C.ar      1 NQ1         0.0759
     14 C18       -42.1850   -7.2020   45.7180 C.3       1 NQ1         0.0858
     15 C19       -43.0280   -7.0240   46.9740 C.ar      1 NQ1        -0.0160
     16 C20       -42.8100   -7.7470   48.1340 C.ar      1 NQ1        -0.0580
     17 C21       -43.6240   -7.5190   49.2350 C.ar      1 NQ1        -0.0685
     18 C22       -44.6420   -6.5790   49.1760 C.ar      1 NQ1        -0.0687
     19 C23       -44.8520   -5.8540   48.0150 C.ar      1 NQ1        -0.0685
     20 C24       -44.0430   -6.0820   46.9150 C.ar      1 NQ1        -0.0580
     21 F03       -38.2030   -5.2020   48.1180 F         1 NQ1        -0.1976
     22 N08       -38.8410   -9.2220   44.2280 N.pl3     1 NQ1        -0.2785
     23 N17       -41.1380   -8.2140   45.6780 N.am      1 NQ1        -0.2135
     24 O16       -42.6970   -9.7800   45.1380 O.2       1 NQ1        -0.3765
     25 H1        -41.9862  -12.1937   45.9715 H         1 NQ1         0.0635
     26 H2        -40.4372  -14.1147   45.6753 H         1 NQ1         0.0521
     27 H3        -38.1757  -13.7598   44.7162 H         1 NQ1         0.0620
     28 H4        -37.4613  -11.4865   44.0238 H         1 NQ1         0.0536
     29 H5        -40.4940   -6.3033   47.4562 H         1 NQ1         0.0448
     30 H6        -36.2651   -6.2578   46.6748 H         1 NQ1         0.0444
     31 H7        -36.5400   -8.0374   44.9623 H         1 NQ1         0.0472
     32 H8        -41.6986   -6.2349   45.5229 H         1 NQ1         0.0743
     33 H9        -42.8816   -7.4340   44.8989 H         1 NQ1         0.0743
     34 H10       -42.0142   -8.4815   48.1820 H         1 NQ1         0.0557
     35 H11       -43.4627   -8.0802   50.1483 H         1 NQ1         0.0599
     36 H12       -45.2745   -6.4115   50.0403 H         1 NQ1         0.0559
     37 H13       -45.6430   -5.1143   47.9679 H         1 NQ1         0.0599
     38 H14       -44.2043   -5.5204   46.0020 H         1 NQ1         0.0557
     39 H15       -38.5918   -9.0356   43.2461 H         1 NQ1         0.2048
@<TRIPOS>BOND
     1    1    2 ar 
     2    6    1 1  
     3    1   13 ar 
     4    2    3 ar 
     5    3    4 ar 
     6    5    4 ar 
     7   13    5 ar 
     8   23    6 am 
     9    6   24 2  
    10    7    8 ar 
    11   12    7 ar 
    12    8    9 ar 
    13    8   21 1  
    14   10    9 ar 
    15   11   10 ar 
    16   12   11 ar 
    17   11   22 1  
    18   23   12 1  
    19   22   13 1  
    20   14   15 1  
    21   14   23 1  
    22   15   16 ar 
    23   15   20 ar 
    24   16   17 ar 
    25   17   18 ar 
    26   18   19 ar 
    27   19   20 ar 
    28    2   25 1  
    29    3   26 1  
    30    4   27 1  
    31    5   28 1  
    32    7   29 1  
    33    9   30 1  
    34   10   31 1  
    35   14   32 1  
    36   14   33 1  
    37   16   34 1  
    38   17   35 1  
    39   18   36 1  
    40   19   37 1  
    41   20   38 1  
    42   22   39 1  
@<TRIPOS>SUBSTRUCTURE
     1 NQ1         1

