### 
### Created by X-TOOL on Mon Aug  2 16:12:06 2021
### 

@<TRIPOS>MOLECULE
6p1l_ligand
   45    48     1     0     0
SMALL
GAST_HUCK


@<TRIPOS>ATOM
      1 C10         2.3360   30.9700   29.1810 C.2       1 MOL         0.2506
      2 C15        -0.7520   28.6400   26.6360 C.2       1 MOL        -0.0079
      3 C20         2.9220   35.2760   30.2020 C.2       1 MOL         0.0075
      4 C21         2.3270   36.6520   30.5820 C.3       1 MOL        -0.0310
      5 C22         2.9130   37.9120   29.9700 C.3       1 MOL        -0.0472
      6 C24         4.6450   36.4460   28.6340 C.3       1 MOL        -0.0145
      7 C26         4.3850   33.6940   29.1060 C.3       1 MOL         0.0729
      8 C02         5.9650   30.9930   30.6130 C.ar      1 MOL         0.0899
      9 C03         7.2390   30.2510   30.2340 C.ar      1 MOL        -0.0409
     10 C04         7.2640   29.3090   29.0360 C.ar      1 MOL        -0.0437
     11 C05         5.9990   29.1020   28.2190 C.ar      1 MOL         0.1143
     12 C07         4.7210   29.8360   28.5990 C.ar      1 MOL        -0.0306
     13 C08         4.7010   30.7870   29.7920 C.ar      1 MOL         0.0294
     14 C09         3.3930   31.4890   30.1450 C.3       1 MOL         0.1730
     15 C12         0.6650   29.1380   28.5870 C.2       1 MOL         0.2059
     16 C14        -1.1070   27.7380   27.7000 C.2       1 MOL        -0.0467
     17 C19         2.5490   33.8720   30.6480 C.2       1 MOL         0.1784
     18 C23         4.0720   37.8080   28.9960 C.3       1 MOL        -0.0402
     19 C25         4.0370   35.1700   29.2680 C.2       1 MOL        -0.0258
     20 F06         6.0120   28.2640   27.1490 F         1 MOL        -0.1946
     21 N11         1.6690   29.7140   29.4630 N.am      1 MOL        -0.1910
     22 N13        -0.1990   28.0640   28.9360 N.2       1 MOL        -0.3233
     23 N18         3.4590   32.9230   29.9710 N.am      1 MOL        -0.2348
     24 O01         5.9630   31.8530   31.7140 O.3       1 MOL        -0.3390
     25 O17         2.0870   31.6060   28.2130 O.2       1 MOL        -0.3749
     26 O27         1.6870   33.5810   31.4050 O.2       1 MOL        -0.4078
     27 S16         0.3600   29.5370   27.1300 S.3       1 MOL         0.0111
     28 H1         -1.2058   28.6709   25.6466 H         1 MOL         0.0573
     29 H2          2.4219   36.7518   31.6733 H         1 MOL         0.0338
     30 H3          1.2622   36.6276   30.3072 H         1 MOL         0.0338
     31 H4          3.2536   38.5428   30.8043 H         1 MOL         0.0280
     32 H5          2.0942   38.4184   29.4379 H         1 MOL         0.0280
     33 H6          5.7100   36.4635   28.9088 H         1 MOL         0.0461
     34 H7          4.5494   36.3382   27.5435 H         1 MOL         0.0461
     35 H8          5.4252   33.5166   29.4166 H         1 MOL         0.0722
     36 H9          4.2590   33.3909   28.0561 H         1 MOL         0.0722
     37 H10         8.1381   30.3941   30.8224 H         1 MOL         0.0513
     38 H11         8.1775   28.7903   28.7685 H         1 MOL         0.0521
     39 H12         3.8188   29.6821   28.0181 H         1 MOL         0.0519
     40 H13         3.1195   31.2569   31.1849 H         1 MOL         0.0945
     41 H14        -1.8723   26.9645   27.6545 H         1 MOL         0.0497
     42 H15         4.8980   38.3962   29.4222 H         1 MOL         0.0293
     43 H16         3.7386   38.2716   28.0559 H         1 MOL         0.0293
     44 H17         1.9117   29.2220   30.2991 H         1 MOL         0.2413
     45 H18         6.8274   31.8632   32.1080 H         1 MOL         0.2444
@<TRIPOS>BOND
     1    1   14 1  
     2   21    1 am 
     3    1   25 2  
     4    2   16 2  
     5   27    2 1  
     6    3    4 1  
     7    3   17 1  
     8   19    3 2  
     9    4    5 1  
    10   18    5 1  
    11    6   18 1  
    12   19    6 1  
    13    7   19 1  
    14   23    7 1  
    15    8    9 ar 
    16   13    8 ar 
    17    8   24 1  
    18    9   10 ar 
    19   11   10 ar 
    20   12   11 ar 
    21   11   20 1  
    22   13   12 ar 
    23   14   13 1  
    24   14   23 1  
    25   15   21 1  
    26   15   22 2  
    27   15   27 1  
    28   16   22 1  
    29   17   23 am 
    30   17   26 2  
    31    2   28 1  
    32    4   29 1  
    33    4   30 1  
    34    5   31 1  
    35    5   32 1  
    36    6   33 1  
    37    6   34 1  
    38    7   35 1  
    39    7   36 1  
    40    9   37 1  
    41   10   38 1  
    42   12   39 1  
    43   14   40 1  
    44   16   41 1  
    45   18   42 1  
    46   18   43 1  
    47   21   44 1  
    48   24   45 1  
@<TRIPOS>SUBSTRUCTURE
     1 MOL         1

