### 
### Created by X-TOOL on Mon Aug  2 16:15:54 2021
### 

@<TRIPOS>MOLECULE
6p3p_ligand
   56    58     1     0     0
SMALL
GAST_HUCK


@<TRIPOS>ATOM
      1 C1         -9.9670   23.3040  -22.1490 C.3       1 NQJ         0.0658
      2 C2        -11.9830   22.9800  -20.7220 C.2       1 NQJ         0.2613
      3 C3        -12.4540   22.4740  -19.4000 C.3       1 NQJ         0.1508
      4 C5        -12.0520   24.6220  -18.2540 C.ar      1 NQJ        -0.0385
      5 C6        -11.0460   24.3600  -17.3220 C.ar      1 NQJ        -0.0601
      6 C7        -10.1500   25.3630  -16.9600 C.ar      1 NQJ        -0.0686
      7 C8        -10.2440   26.6360  -17.5220 C.ar      1 NQJ        -0.0687
      8 C9        -11.2490   26.9030  -18.4480 C.ar      1 NQJ        -0.0686
      9 C10       -12.1410   25.8960  -18.8190 C.ar      1 NQJ        -0.0601
     10 C11       -13.1230   20.2170  -20.1010 C.2       1 NQJ         0.2097
     11 C14       -16.1650   17.9330  -19.9230 C.2       1 NQJ        -0.0259
     12 C16       -15.3440   17.0040  -20.5320 C.2       1 NQJ         0.1698
     13 C17       -15.5390   14.4770  -18.3530 C.ar      1 NQJ         0.1050
     14 C18       -14.1520   14.4790  -18.5420 C.ar      1 NQJ        -0.0170
     15 C19       -13.2940   14.2660  -17.4620 C.ar      1 NQJ         0.0298
     16 C20       -13.8330   14.0500  -16.1940 C.ar      1 NQJ        -0.0466
     17 C21       -15.2110   14.0550  -16.0120 C.ar      1 NQJ        -0.0309
     18 F3        -11.2860   15.3790  -17.2500 F         1 NQJ        -0.2225
     19 C23       -11.8240   14.2530  -17.6590 C.3       1 NQJ         0.3707
     20 F1        -11.5050   14.0770  -18.9240 F         1 NQJ        -0.2225
     21 F2        -11.2980   13.2610  -16.9710 F         1 NQJ        -0.2225
     22 C22       -16.0560   14.2760  -17.0970 C.ar      1 NQJ         0.0887
     23 CL        -17.7310   14.2800  -16.8480 Cl        1 NQJ        -0.0540
     24 N2        -16.4620   14.7600  -19.4530 N.am      1 NQJ        -0.1802
     25 S2        -15.8810   15.4810  -20.9160 S.o2      1 NQJ         0.0965
     26 O4        -14.8160   14.7630  -21.5340 O.2       1 NQJ        -0.1451
     27 O5        -17.0430   15.6310  -21.7580 O.2       1 NQJ        -0.1451
     28 C15       -17.6090   17.8820  -19.4690 C.3       1 NQJ        -0.0398
     29 C13       -15.5190   19.1510  -19.6940 C.2       1 NQJ        -0.0481
     30 S1        -13.8190   17.6740  -20.7830 S.3       1 NQJ        -0.0088
     31 C12       -14.1960   19.1660  -20.1370 C.2       1 NQJ         0.0989
     32 O3        -12.0020   19.9710  -20.5230 O.2       1 NQJ        -0.3907
     33 N1        -13.4170   21.4040  -19.5730 N.am      1 NQJ        -0.2634
     34 O2        -12.7490   23.1880  -21.6500 O.2       1 NQJ        -0.3676
     35 O1        -10.5710   23.1920  -20.8690 O.3       1 NQJ        -0.2783
     36 C4        -13.0280   23.5540  -18.6300 C.3       1 NQJ         0.0227
     37 H1         -8.8849   23.4624  -22.0312 H         1 NQJ         0.0577
     38 H2        -10.4058   24.1565  -22.6882 H         1 NQJ         0.0577
     39 H3        -10.1423   22.3799  -22.7193 H         1 NQJ         0.0577
     40 H4        -11.5881   22.0757  -18.8508 H         1 NQJ         0.0839
     41 H5        -10.9621   23.3741  -16.8793 H         1 NQJ         0.0557
     42 H6         -9.3724   25.1523  -16.2347 H         1 NQJ         0.0599
     43 H7         -9.5405   27.4111  -17.2402 H         1 NQJ         0.0559
     44 H8        -11.3385   27.8929  -18.8806 H         1 NQJ         0.0599
     45 H9        -12.9107   26.1048  -19.5532 H         1 NQJ         0.0557
     46 H10       -13.7425   14.6467  -19.5316 H         1 NQJ         0.0682
     47 H11       -13.1762   13.8779  -15.3490 H         1 NQJ         0.0727
     48 H12       -15.6280   13.8869  -15.0257 H         1 NQJ         0.0665
     49 H13       -17.4321   14.5360  -19.3592 H         1 NQJ         0.2169
     50 H14       -17.8877   18.8485  -19.0238 H         1 NQJ         0.0345
     51 H15       -17.7302   17.0850  -18.7206 H         1 NQJ         0.0345
     52 H16       -18.2579   17.6755  -20.3329 H         1 NQJ         0.0345
     53 H17       -16.0004   20.0036  -19.2172 H         1 NQJ         0.0502
     54 H18       -14.3586   21.5670  -19.2782 H         1 NQJ         0.1871
     55 H19       -13.4515   23.1326  -17.7064 H         1 NQJ         0.0475
     56 H20       -13.8308   24.0138  -19.2251 H         1 NQJ         0.0475
@<TRIPOS>BOND
     1   35    1 1  
     2    3    2 1  
     3    2   34 2  
     4    2   35 1  
     5   33    3 1  
     6    3   36 1  
     7    4    5 ar 
     8    4    9 ar 
     9   36    4 1  
    10    5    6 ar 
    11    6    7 ar 
    12    8    7 ar 
    13    9    8 ar 
    14   31   10 1  
    15   10   32 2  
    16   10   33 am 
    17   11   12 2  
    18   11   28 1  
    19   29   11 1  
    20   12   25 1  
    21   12   30 1  
    22   13   14 ar 
    23   13   22 ar 
    24   24   13 1  
    25   14   15 ar 
    26   15   16 ar 
    27   15   19 1  
    28   17   16 ar 
    29   22   17 ar 
    30   19   18 1  
    31   19   20 1  
    32   19   21 1  
    33   22   23 1  
    34   25   24 am 
    35   25   26 2  
    36   25   27 2  
    37   29   31 2  
    38   30   31 1  
    39    1   37 1  
    40    1   38 1  
    41    1   39 1  
    42    3   40 1  
    43    5   41 1  
    44    6   42 1  
    45    7   43 1  
    46    8   44 1  
    47    9   45 1  
    48   14   46 1  
    49   16   47 1  
    50   17   48 1  
    51   24   49 1  
    52   28   50 1  
    53   28   51 1  
    54   28   52 1  
    55   29   53 1  
    56   33   54 1  
    57   36   55 1  
    58   36   56 1  
@<TRIPOS>SUBSTRUCTURE
     1 NQJ         1

