### 
### Created by X-TOOL on Mon Aug  2 16:15:56 2021
### 

@<TRIPOS>MOLECULE
6p3t_ligand
   42    45     1     0     0
SMALL
GAST_HUCK


@<TRIPOS>ATOM
      1 O01        17.3590  -12.6590   36.2900 O.2       1 NRS        -0.1464
      2 S02        17.7770  -11.6280   37.2450 S.o2      1 NRS         0.0822
      3 C03        17.9580  -12.3690   38.8610 C.ar      1 NRS         0.0863
      4 C04        17.1870  -11.9320   39.9380 C.ar      1 NRS        -0.0255
      5 C05        17.3990  -12.5760   41.1610 C.ar      1 NRS         0.0947
      6 C06        18.3640  -13.6260   41.2730 C.ar      1 NRS         0.0930
      7 N07        18.5880  -14.3190   42.5560 N.am      1 NRS        -0.2258
      8 C08        17.8270  -13.9270   43.6900 C.2       1 NRS         0.3118
      9 C09        16.8120  -12.8290   43.5810 C.2       1 NRS         0.3118
     10 N10        16.5990  -12.1610   42.3390 N.am      1 NRS        -0.2258
     11 O11        16.1700  -12.4890   44.5120 O.2       1 NRS        -0.3519
     12 O12        18.0230  -14.4950   44.7060 O.2       1 NRS        -0.3519
     13 C13        19.1290  -14.0410   40.1790 C.ar      1 NRS        -0.0506
     14 C14        18.9250  -13.4010   38.9590 C.ar      1 NRS        -0.0632
     15 N15        19.3320  -10.9480   36.9450 N.am      1 NRS        -0.1774
     16 C16        20.3330  -11.6700   36.1430 C.ar      1 NRS         0.0666
     17 C17        19.9300  -12.2580   34.9330 C.ar      1 NRS        -0.0437
     18 C18        20.8670  -12.9750   34.1200 C.ar      1 NRS        -0.0371
     19 C19        20.4260  -13.5660   32.8850 C.ar      1 NRS        -0.0636
     20 C20        21.3330  -14.2570   32.0790 C.ar      1 NRS        -0.0678
     21 C21        22.6670  -14.3710   32.4920 C.ar      1 NRS        -0.0671
     22 C22        23.0980  -13.7920   33.6930 C.ar      1 NRS        -0.0611
     23 C23        22.1790  -13.0810   34.5260 C.ar      1 NRS        -0.0287
     24 C24        22.6090  -12.4890   35.7650 C.ar      1 NRS        -0.0598
     25 C25        21.6830  -11.7870   36.5590 C.ar      1 NRS        -0.0367
     26 C26        19.6490   -9.6540   37.5290 C.3       1 NRS         0.0454
     27 O27        16.6360  -10.7090   37.2010 O.2       1 NRS        -0.1464
     28 H1         16.4608  -11.1342   39.8324 H         1 NRS         0.0476
     29 H2         19.2642  -15.0524   42.6264 H         1 NRS         0.2247
     30 H3         15.9236  -11.4273   42.2639 H         1 NRS         0.2247
     31 H4         19.8587  -14.8366   40.2773 H         1 NRS         0.0457
     32 H5         19.5028  -13.6905   38.0887 H         1 NRS         0.0473
     33 H6         18.8989  -12.1685   34.6106 H         1 NRS         0.0406
     34 H7         19.3898  -13.4750   32.5801 H         1 NRS         0.0570
     35 H8         21.0087  -14.7002   31.1444 H         1 NRS         0.0601
     36 H9         23.3741  -14.9136   31.8750 H         1 NRS         0.0567
     37 H10        24.1357  -13.8838   33.9927 H         1 NRS         0.0611
     38 H11        23.6404  -12.5832   36.0850 H         1 NRS         0.0613
     39 H12        22.0029  -11.3348   37.4908 H         1 NRS         0.0557
     40 H13        20.6711   -9.3638   37.2443 H         1 NRS         0.0520
     41 H14        19.5781   -9.7190   38.6248 H         1 NRS         0.0520
     42 H15        18.9376   -8.9008   37.1595 H         1 NRS         0.0520
@<TRIPOS>BOND
     1    1    2 2  
     2    2    3 1  
     3    2   15 am 
     4    2   27 2  
     5    3    4 ar 
     6    3   14 ar 
     7    4    5 ar 
     8    5    6 ar 
     9    5   10 1  
    10    6    7 1  
    11    6   13 ar 
    12    7    8 am 
    13    8    9 1  
    14    8   12 2  
    15    9   10 am 
    16    9   11 2  
    17   13   14 ar 
    18   15   16 1  
    19   15   26 1  
    20   16   17 ar 
    21   16   25 ar 
    22   17   18 ar 
    23   18   19 ar 
    24   18   23 ar 
    25   19   20 ar 
    26   20   21 ar 
    27   21   22 ar 
    28   22   23 ar 
    29   23   24 ar 
    30   24   25 ar 
    31    4   28 1  
    32    7   29 1  
    33   10   30 1  
    34   13   31 1  
    35   14   32 1  
    36   17   33 1  
    37   19   34 1  
    38   20   35 1  
    39   21   36 1  
    40   22   37 1  
    41   24   38 1  
    42   25   39 1  
    43   26   40 1  
    44   26   41 1  
    45   26   42 1  
@<TRIPOS>SUBSTRUCTURE
     1 NRS         1

