### 
### Created by X-TOOL on Mon Aug  2 16:15:56 2021
### 

@<TRIPOS>MOLECULE
6p3u_ligand
   41    44     1     0     0
SMALL
GAST_HUCK


@<TRIPOS>ATOM
      1 C26        18.1840  -11.7850   35.0550 C.2       1 NRY         0.0881
      2 C25        17.1340  -11.1430   34.4140 C.2       1 NRY         0.1564
      3 C22        15.6220   -8.0850   35.3680 C.2       1 NRY        -0.0115
      4 C23        15.6900   -9.1450   34.4940 C.2       1 NRY         0.1048
      5 C15        20.4870   -8.7670   39.5340 C.ar      1 NRY        -0.0157
      6 C14        20.0580   -9.4940   38.4380 C.ar      1 NRY        -0.0395
      7 C13        18.7770   -9.2940   37.9230 C.ar      1 NRY         0.0272
      8 C12        18.2570  -10.0670   36.6870 C.2       1 NRY         0.1211
      9 C16        19.6460   -7.8180   40.0900 C.ar      1 NRY         0.1452
     10 C06        21.9810  -14.3040   32.8120 C.ar      1 NRY         0.1379
     11 C05        20.6890  -13.7960   32.9420 C.ar      1 NRY        -0.0220
     12 C02        21.1050  -11.8020   36.1660 C.2       1 NRY         0.1475
     13 C03        21.4110  -12.6800   34.9550 C.ar      1 NRY         0.0300
     14 C04        20.4060  -12.9830   34.0320 C.ar      1 NRY        -0.0447
     15 O01        21.8600  -11.0790   36.7120 O.2       1 NRY        -0.3788
     16 F07        22.2950  -15.1030   31.7660 F         1 NRY        -0.1791
     17 C08        22.9770  -14.0160   33.7320 C.ar      1 NRY        -0.0220
     18 C09        22.6960  -13.2020   34.8130 C.ar      1 NRY        -0.0447
     19 C10        19.7770  -11.9370   36.8090 C.3       1 NRY         0.0966
     20 N11        18.7300  -11.2220   36.1560 N.2       1 NRY        -0.2994
     21 F17        20.0650   -7.1020   41.1560 F         1 NRY        -0.1731
     22 C18        18.3860   -7.5760   39.5790 C.ar      1 NRY        -0.0157
     23 C19        17.9570   -8.3150   38.4930 C.ar      1 NRY        -0.0395
     24 C20        17.2030   -9.4370   36.0250 C.2       1 NRY         0.1763
     25 C21        16.5520   -8.2320   36.3250 C.2       1 NRY        -0.0017
     26 N24        16.6840   -9.9720   34.9370 N.pl3     1 NRY        -0.1434
     27 H1         18.5641  -12.7322   34.6752 H         1 NRY         0.1069
     28 H2         16.6832  -11.5655   33.5172 H         1 NRY         0.1684
     29 H3         14.9216   -7.2544   35.2949 H         1 NRY         0.0516
     30 H4         15.0678   -9.2970   33.6132 H         1 NRY         0.1345
     31 H5         21.4718   -8.9386   39.9533 H         1 NRY         0.0638
     32 H6         20.7185  -10.2204   37.9785 H         1 NRY         0.0697
     33 H7         19.9242  -14.0299   32.2103 H         1 NRY         0.0617
     34 H8         19.4071  -12.5840   34.1667 H         1 NRY         0.0662
     35 H9         23.9718  -14.4273   33.6042 H         1 NRY         0.0617
     36 H10        23.4652  -12.9722   35.5415 H         1 NRY         0.0662
     37 H11        19.8554  -11.5653   37.8413 H         1 NRY         0.0690
     38 H12        19.5084  -13.0036   36.8227 H         1 NRY         0.0690
     39 H13        17.7460   -6.8211   40.0212 H         1 NRY         0.0638
     40 H14        16.9723   -8.1335   38.0776 H         1 NRY         0.0697
     41 H15        16.7569   -7.5592   37.1564 H         1 NRY         0.0778
@<TRIPOS>BOND
     1    1    2 2  
     2   20    1 1  
     3    2   26 1  
     4    4    3 2  
     5    3   25 1  
     6   26    4 1  
     7    6    5 ar 
     8    5    9 ar 
     9    7    6 ar 
    10    8    7 1  
    11    7   23 ar 
    12   20    8 2  
    13    8   24 1  
    14    9   21 1  
    15    9   22 ar 
    16   11   10 ar 
    17   10   16 1  
    18   17   10 ar 
    19   14   11 ar 
    20   12   13 1  
    21   12   15 2  
    22   19   12 1  
    23   13   14 ar 
    24   13   18 ar 
    25   18   17 ar 
    26   19   20 1  
    27   22   23 ar 
    28   24   25 2  
    29   24   26 1  
    30    1   27 1  
    31    2   28 1  
    32    3   29 1  
    33    4   30 1  
    34    5   31 1  
    35    6   32 1  
    36   11   33 1  
    37   14   34 1  
    38   17   35 1  
    39   18   36 1  
    40   19   37 1  
    41   19   38 1  
    42   22   39 1  
    43   23   40 1  
    44   25   41 1  
@<TRIPOS>SUBSTRUCTURE
     1 NRY         1

