### 
### Created by X-TOOL on Mon Aug  2 16:15:57 2021
### 

@<TRIPOS>MOLECULE
6p3v_ligand
   44    46     1     0     0
SMALL
GAST_HUCK


@<TRIPOS>ATOM
      1 C01        21.7310  -11.3710   36.5200 C.3       1 NRV         0.0463
      2 N02        21.0310  -11.8760   35.3660 N.pl3     1 NRV        -0.2231
      3 C03        21.4880  -12.7460   34.4140 C.ar      1 NRV         0.0875
      4 C04        22.7400  -13.3890   34.2550 C.ar      1 NRV        -0.0311
      5 C05        22.9160  -14.2250   33.1560 C.ar      1 NRV        -0.0309
      6 C06        21.8920  -14.4410   32.1980 C.ar      1 NRV         0.1272
      7 F07        22.1410  -15.2760   31.1410 F         1 NRV        -0.1908
      8 C08        20.6500  -13.8190   32.3280 C.ar      1 NRV        -0.0202
      9 C09        20.4720  -12.9810   33.4520 C.ar      1 NRV         0.0453
     10 C10        19.3520  -12.1840   33.8720 C.ar      1 NRV         0.1388
     11 C11        19.7550  -11.5370   35.0470 C.ar      1 NRV         0.2009
     12 N12        18.8570  -10.7120   35.6480 N.ar      1 NRV        -0.2203
     13 C13        17.6420  -10.5560   35.0970 C.ar      1 NRV         0.1428
     14 S14        16.5020   -9.4430   35.9430 S.3       1 NRV        -0.0510
     15 C15        17.3830   -7.8470   36.2690 C.3       1 NRV         0.0548
     16 C16        18.4390   -7.9710   37.3530 C.3       1 NRV        -0.0197
     17 N17        18.1780   -7.2250   38.6170 N.4       1 NRV         0.2356
     18 C18        19.5100   -6.9830   39.2590 C.3       1 NRV        -0.0348
     19 C19        20.1420   -8.3080   39.7020 C.3       1 NRV        -0.0245
     20 C20        17.4410   -5.9320   38.4410 C.3       1 NRV        -0.0348
     21 C21        16.5170   -5.6110   39.5740 C.3       1 NRV        -0.0245
     22 N22        17.2660  -11.1520   33.9940 N.ar      1 NRV        -0.2501
     23 N23        18.1220  -11.9870   33.3610 N.ar      1 NRV        -0.2271
     24 H1         22.7444  -11.7979   36.5500 H         1 NRV         0.0559
     25 H2         21.1864  -11.6550   37.4325 H         1 NRV         0.0559
     26 H3         21.7967  -10.2747   36.4583 H         1 NRV         0.0559
     27 H4         23.5398  -13.2342   34.9701 H         1 NRV         0.0562
     28 H5         23.8676  -14.7280   33.0278 H         1 NRV         0.0620
     29 H6         19.8596  -13.9711   31.6019 H         1 NRV         0.0633
     30 H7         16.6440   -7.0948   36.5821 H         1 NRV         0.0464
     31 H8         17.8701   -7.5177   35.3393 H         1 NRV         0.0464
     32 H9         19.3899   -7.6053   36.9382 H         1 NRV         0.0825
     33 H10        18.5355   -9.0370   37.6067 H         1 NRV         0.0825
     34 H11        17.6226   -7.8113   39.2202 H         1 NRV         0.2033
     35 H12        19.3759   -6.3345   40.1374 H         1 NRV         0.0812
     36 H13        20.1756   -6.4884   38.5362 H         1 NRV         0.0812
     37 H14        21.1176   -8.1104   40.1702 H         1 NRV         0.0281
     38 H15        20.2808   -8.9590   38.8262 H         1 NRV         0.0281
     39 H16        19.4811   -8.8051   40.4274 H         1 NRV         0.0281
     40 H17        16.8492   -5.9920   37.5157 H         1 NRV         0.0812
     41 H18        18.1783   -5.1205   38.3528 H         1 NRV         0.0812
     42 H19        16.0134   -4.6532   39.3763 H         1 NRV         0.0281
     43 H20        17.0938   -5.5361   40.5076 H         1 NRV         0.0281
     44 H21        15.7647   -6.4077   39.6706 H         1 NRV         0.0281
@<TRIPOS>BOND
     1    1    2 1  
     2    2    3 1  
     3    2   11 1  
     4    3    4 ar 
     5    3    9 ar 
     6    4    5 ar 
     7    5    6 ar 
     8    6    7 1  
     9    6    8 ar 
    10    8    9 ar 
    11    9   10 1  
    12   10   11 ar 
    13   10   23 ar 
    14   11   12 ar 
    15   12   13 ar 
    16   13   14 1  
    17   13   22 ar 
    18   14   15 1  
    19   15   16 1  
    20   16   17 1  
    21   17   18 1  
    22   17   20 1  
    23   18   19 1  
    24   20   21 1  
    25   22   23 ar 
    26    1   24 1  
    27    1   25 1  
    28    1   26 1  
    29    4   27 1  
    30    5   28 1  
    31    8   29 1  
    32   15   30 1  
    33   15   31 1  
    34   16   32 1  
    35   16   33 1  
    36   17   34 1  
    37   18   35 1  
    38   18   36 1  
    39   19   37 1  
    40   19   38 1  
    41   19   39 1  
    42   20   40 1  
    43   20   41 1  
    44   21   42 1  
    45   21   43 1  
    46   21   44 1  
@<TRIPOS>SUBSTRUCTURE
     1 NRV         1

