### 
### Created by X-TOOL on Mon Aug  2 16:15:58 2021
### 

@<TRIPOS>MOLECULE
6p5v_ligand
   63    67     1     0     0
SMALL
GAST_HUCK


@<TRIPOS>ATOM
      1 N          15.2970  -10.1290   -7.3840 N.am      1 O37        -0.2619
      2 CA         14.9980   -9.6360   -8.7600 C.3       1 O37         0.1496
      3 C          13.7090   -9.1770   -8.9720 C.2       1 O37         0.2377
      4 O          12.9280   -9.0830   -8.0160 O.2       1 O37        -0.3812
      5 CB         15.7550  -10.3500   -9.9080 C.3       1 O37         0.0427
      6 CG         15.4830  -11.7300   -9.9240 C.ar      1 O37        -0.0381
      7 CD1        16.6170  -12.5570   -9.8120 C.ar      1 O37        -0.0612
      8 CD2        14.2360  -12.3200   -9.8860 C.ar      1 O37        -0.0612
      9 CE1        16.4840  -13.9430   -9.7670 C.ar      1 O37        -0.0351
     10 CE2        14.1010  -13.7020   -9.8350 C.ar      1 O37        -0.0351
     11 CZ         15.2230  -14.5140   -9.7700 C.ar      1 O37         0.1245
     12 CAA        10.9840   -9.8560  -10.5000 C.3       1 O37        -0.0391
     13 CAB        11.8290   -8.6170  -10.3330 C.3       1 O37         0.0560
     14 CAH        16.4900  -10.1600   -6.7820 C.2       1 O37         0.2058
     15 CAJ        16.5070  -10.6720   -5.4790 C.ar      1 O37         0.0433
     16 CAK        15.4470  -11.3580   -4.8890 C.ar      1 O37        -0.0409
     17 CAL        15.4920  -11.7470   -3.5530 C.ar      1 O37        -0.0406
     18 CAM        16.5280  -11.3220   -2.7290 C.ar      1 O37        -0.0563
     19 CAN        17.5380  -10.5530   -3.2850 C.ar      1 O37        -0.0629
     20 CAO        17.5110  -10.1930   -4.6310 C.ar      1 O37        -0.0489
     21 CAP        14.4660  -12.5240   -3.0200 C.3       1 O37        -0.0302
     22 CAY        15.2780   -9.7190  -11.1430 C.2       1 O37         0.0089
     23 CAZ        14.0300   -9.2710  -11.3150 C.2       1 O37         0.1987
     24 CBC        15.7230   -9.6550  -12.3730 C.2       1 O37        -0.0119
     25 CBD        17.0430  -10.2250  -12.8700 C.3       1 O37        -0.0337
     26 CBE        13.0020   -8.1130  -13.1850 C.ar      1 O37         0.1020
     27 CBF        13.0200   -6.6940  -13.0760 C.ar      1 O37        -0.0289
     28 CBG        11.9940   -5.8710  -13.5500 C.ar      1 O37        -0.0675
     29 CBH        10.8150   -6.4430  -13.9680 C.ar      1 O37        -0.0701
     30 CBI        10.6920   -7.8120  -13.9020 C.ar      1 O37        -0.0675
     31 CBJ        11.7160   -8.5310  -13.3110 C.ar      1 O37        -0.0289
     32 FAV        15.0790  -15.8370   -9.7310 F         1 O37        -0.1895
     33 NAC        13.2600   -9.0050  -10.2280 N.am      1 O37        -0.1929
     34 NBA        13.8740   -8.4710  -12.3490 N.pl3     1 O37        -0.1585
     35 NBB        14.8490   -8.9870  -13.1210 N.2       1 O37        -0.2465
     36 OAI        17.5300   -9.9740   -7.4000 O.2       1 O37        -0.3845
     37 H1         14.5213  -10.4734   -6.8551 H         1 O37         0.1879
     38 H2         15.5368   -8.6770   -8.7500 H         1 O37         0.0840
     39 H3         16.8388  -10.1985   -9.7968 H         1 O37         0.0539
     40 H4         17.6035  -12.1107   -9.7603 H         1 O37         0.0546
     41 H5         13.3493  -11.6965   -9.8961 H         1 O37         0.0546
     42 H6         17.3656  -14.5726   -9.7297 H         1 O37         0.0586
     43 H7         13.1130  -14.1478   -9.8461 H         1 O37         0.0586
     44 H8          9.9248   -9.5696  -10.5778 H         1 O37         0.0254
     45 H9         11.1228  -10.5145   -9.6299 H         1 O37         0.0254
     46 H10        11.2883  -10.3870  -11.4140 H         1 O37         0.0254
     47 H11        11.5249   -8.0860   -9.4189 H         1 O37         0.0588
     48 H12        11.6904   -7.9584  -11.2030 H         1 O37         0.0588
     49 H13        14.5705  -11.5933   -5.4818 H         1 O37         0.0607
     50 H14        16.5453  -11.5856   -1.6777 H         1 O37         0.0592
     51 H15        18.3629  -10.2260   -2.6624 H         1 O37         0.0611
     52 H16        18.2765   -9.5345   -5.0252 H         1 O37         0.0611
     53 H17        13.7403  -12.7654   -3.8106 H         1 O37         0.0391
     54 H18        13.9618  -11.9653   -2.2177 H         1 O37         0.0391
     55 H19        14.8856  -13.4549   -2.6109 H         1 O37         0.0391
     56 H20        17.1487  -10.0209  -13.9457 H         1 O37         0.0369
     57 H21        17.0606  -11.3116  -12.6996 H         1 O37         0.0369
     58 H22        17.8742   -9.7547  -12.3242 H         1 O37         0.0369
     59 H23        13.8745   -6.2266  -12.6002 H         1 O37         0.0571
     60 H24        12.1260   -4.7957  -13.5876 H         1 O37         0.0596
     61 H25        10.0022   -5.8301  -14.3405 H         1 O37         0.0546
     62 H26         9.8177   -8.3130  -14.3017 H         1 O37         0.0596
     63 H27        11.4711   -9.5101  -12.9154 H         1 O37         0.0571
@<TRIPOS>BOND
     1    2    1 1  
     2    1   14 am 
     3    3    2 1  
     4    5    2 1  
     5    3    4 2  
     6   33    3 am 
     7    5    6 1  
     8   22    5 1  
     9    6    7 ar 
    10    6    8 ar 
    11    7    9 ar 
    12    8   10 ar 
    13    9   11 ar 
    14   10   11 ar 
    15   11   32 1  
    16   13   12 1  
    17   33   13 1  
    18   14   15 1  
    19   14   36 2  
    20   15   16 ar 
    21   15   20 ar 
    22   16   17 ar 
    23   17   18 ar 
    24   17   21 1  
    25   19   18 ar 
    26   20   19 ar 
    27   23   22 2  
    28   22   24 1  
    29   23   33 1  
    30   34   23 1  
    31   24   25 1  
    32   24   35 2  
    33   26   27 ar 
    34   26   31 ar 
    35   26   34 1  
    36   27   28 ar 
    37   28   29 ar 
    38   29   30 ar 
    39   30   31 ar 
    40   34   35 1  
    41    1   37 1  
    42    2   38 1  
    43    5   39 1  
    44    7   40 1  
    45    8   41 1  
    46    9   42 1  
    47   10   43 1  
    48   12   44 1  
    49   12   45 1  
    50   12   46 1  
    51   13   47 1  
    52   13   48 1  
    53   16   49 1  
    54   18   50 1  
    55   19   51 1  
    56   20   52 1  
    57   21   53 1  
    58   21   54 1  
    59   21   55 1  
    60   25   56 1  
    61   25   57 1  
    62   25   58 1  
    63   27   59 1  
    64   28   60 1  
    65   29   61 1  
    66   30   62 1  
    67   31   63 1  
@<TRIPOS>SUBSTRUCTURE
     1 O37         1

