### 
### Created by X-TOOL on Mon Aug  2 16:15:58 2021
### 

@<TRIPOS>MOLECULE
6p5w_ligand
   62    66     1     0     0
SMALL
GAST_HUCK


@<TRIPOS>ATOM
      1 C4         16.5710  -11.4330   -9.8250 C.ar      1 O0A        -0.0661
      2 C14        16.2780  -10.8910   -2.6020 C.ar      1 O0A        -0.0563
      3 C5         15.3580  -10.7970   -9.6300 C.ar      1 O0A        -0.0428
      4 C6         14.1900  -11.5310   -9.5490 C.ar      1 O0A        -0.0661
      5 C11        16.2230   -9.9650   -5.2370 C.ar      1 O0A         0.0431
      6 C7         14.2300  -12.9130   -9.6350 C.ar      1 O0A        -0.0673
      7 C8         15.3350   -9.2750   -9.5670 C.3       1 O0A         0.0286
      8 C9         14.5210   -8.7090   -8.4070 C.3       1 O0A         0.1010
      9 C10        16.1210   -9.4290   -6.6560 C.2       1 O0A         0.2039
     10 C12        17.2000   -9.4890   -4.3730 C.ar      1 O0A        -0.0489
     11 C13        17.2200   -9.9750   -3.0690 C.ar      1 O0A        -0.0629
     12 N1         14.7670   -9.2840   -7.0940 N.am      1 O0A        -0.2758
     13 N2         12.5260   -8.3560   -9.8850 N.pl3     1 O0A        -0.2720
     14 C3         16.6120  -12.8130   -9.9190 C.ar      1 O0A        -0.0673
     15 N3         14.3590   -8.0080  -12.9950 N.2       1 O0A        -0.2430
     16 C1         15.5140  -15.0860   -9.9120 C.3       1 O0A        -0.0344
     17 C15        15.2790  -11.3220   -3.4830 C.ar      1 O0A        -0.0406
     18 C16        14.2120  -12.3270   -3.0280 C.3       1 O0A        -0.0302
     19 C17        15.2470  -10.8390   -4.7930 C.ar      1 O0A        -0.0409
     20 C18        13.0790   -8.2430   -8.5600 C.3       1 O0A         0.1619
     21 C19        13.4330   -8.2930  -11.0290 C.2       1 O0A         0.1694
     22 C2         15.4450  -13.5540   -9.8140 C.ar      1 O0A        -0.0530
     23 C20        14.7970   -8.7270  -10.9260 C.2       1 O0A         0.0031
     24 C21        15.3460   -8.5160  -12.2220 C.2       1 O0A        -0.0095
     25 C22        16.7900   -8.8120  -12.6340 C.3       1 O0A        -0.0332
     26 C23        11.9720   -7.3830  -12.7800 C.ar      1 O0A         0.1030
     27 C24        10.8970   -8.2550  -12.8870 C.ar      1 O0A        -0.0284
     28 C25         9.6920   -7.7970  -13.3760 C.ar      1 O0A        -0.0673
     29 C26         9.5800   -6.4680  -13.7480 C.ar      1 O0A        -0.0699
     30 C27        10.6570   -5.6000  -13.6350 C.ar      1 O0A        -0.0673
     31 C28        11.8670   -6.0530  -13.1560 C.ar      1 O0A        -0.0284
     32 N4         13.2320   -7.8810  -12.2770 N.pl3     1 O0A        -0.1606
     33 O1         17.0480   -9.1060   -7.3280 O.2       1 O0A        -0.3847
     34 O2         12.2290   -8.8990   -7.6350 O.3       1 O0A        -0.3680
     35 H1         17.4839  -10.8538   -9.9037 H         1 O0A         0.0539
     36 H2         16.3182  -11.2597   -1.5834 H         1 O0A         0.0592
     37 H3         13.2407  -11.0244   -9.4179 H         1 O0A         0.0539
     38 H4         13.3152  -13.4900   -9.5626 H         1 O0A         0.0539
     39 H5         16.3718   -8.9305   -9.4389 H         1 O0A         0.0513
     40 H6         15.0225   -7.7351   -8.3069 H         1 O0A         0.0636
     41 H7         17.9282   -8.7580   -4.7054 H         1 O0A         0.0611
     42 H8         17.9942   -9.6297   -2.3934 H         1 O0A         0.0611
     43 H9         14.0071   -9.5714   -6.5109 H         1 O0A         0.1853
     44 H10        11.5127   -8.4786  -10.0233 H         1 O0A         0.1818
     45 H11        17.5594  -13.3161  -10.0752 H         1 O0A         0.0539
     46 H12        14.5026  -15.5060   -9.8081 H         1 O0A         0.0377
     47 H13        16.1572  -15.4762   -9.1095 H         1 O0A         0.0377
     48 H14        15.9314  -15.3726  -10.8886 H         1 O0A         0.0377
     49 H15        13.5248  -12.5347   -3.8615 H         1 O0A         0.0391
     50 H16        13.6472  -11.9051   -2.1836 H         1 O0A         0.0391
     51 H17        14.6992  -13.2615   -2.7129 H         1 O0A         0.0391
     52 H18        14.4546  -11.1500   -5.4642 H         1 O0A         0.0607
     53 H19        13.0741   -7.1720   -8.3092 H         1 O0A         0.0888
     54 H20        17.3405   -9.2198  -11.7734 H         1 O0A         0.0370
     55 H21        17.2729   -7.8830  -12.9713 H         1 O0A         0.0370
     56 H22        16.7945   -9.5460  -13.4533 H         1 O0A         0.0370
     57 H23        11.0046   -9.2912  -12.5874 H         1 O0A         0.0573
     58 H24         8.8450   -8.4673  -13.4678 H         1 O0A         0.0596
     59 H25         8.6362   -6.0997  -14.1336 H         1 O0A         0.0547
     60 H26        10.5459   -4.5614  -13.9248 H         1 O0A         0.0596
     61 H27        12.7168   -5.3849  -13.0751 H         1 O0A         0.0573
     62 H28        12.5951   -8.8236   -6.7617 H         1 O0A         0.2123
@<TRIPOS>BOND
     1    3    1 ar 
     2    1   14 ar 
     3   11    2 ar 
     4   17    2 ar 
     5    3    4 ar 
     6    7    3 1  
     7    4    6 ar 
     8    9    5 1  
     9    5   10 ar 
    10    5   19 ar 
    11    6   22 ar 
    12    7    8 1  
    13   23    7 1  
    14    8   12 1  
    15   20    8 1  
    16   12    9 am 
    17    9   33 2  
    18   10   11 ar 
    19   13   20 1  
    20   21   13 1  
    21   14   22 ar 
    22   15   24 2  
    23   32   15 1  
    24   22   16 1  
    25   17   18 1  
    26   19   17 ar 
    27   20   34 1  
    28   21   23 2  
    29   32   21 1  
    30   23   24 1  
    31   24   25 1  
    32   26   27 ar 
    33   26   31 ar 
    34   26   32 1  
    35   27   28 ar 
    36   28   29 ar 
    37   29   30 ar 
    38   30   31 ar 
    39    1   35 1  
    40    2   36 1  
    41    4   37 1  
    42    6   38 1  
    43    7   39 1  
    44    8   40 1  
    45   10   41 1  
    46   11   42 1  
    47   12   43 1  
    48   13   44 1  
    49   14   45 1  
    50   16   46 1  
    51   16   47 1  
    52   16   48 1  
    53   18   49 1  
    54   18   50 1  
    55   18   51 1  
    56   19   52 1  
    57   20   53 1  
    58   25   54 1  
    59   25   55 1  
    60   25   56 1  
    61   27   57 1  
    62   28   58 1  
    63   29   59 1  
    64   30   60 1  
    65   31   61 1  
    66   34   62 1  
@<TRIPOS>SUBSTRUCTURE
     1 O0A         1

