### 
### Created by X-TOOL on Mon Aug  2 16:15:59 2021
### 

@<TRIPOS>MOLECULE
6p83_ligand
   50    54     1     0     0
SMALL
GAST_HUCK


@<TRIPOS>ATOM
      1 C2        -14.6650   27.1930   19.5160 C.ar      1 O3Y         0.1553
      2 C3        -14.5340   26.4870   18.2680 C.ar      1 O3Y         0.1083
      3 C13       -14.0520   27.4480   17.3650 C.2       1 O3Y         0.2525
      4 C15       -13.4390   29.8840   17.5660 C.ar      1 O3Y         0.0964
      5 C16       -12.4710   29.9530   16.5520 C.ar      1 O3Y        -0.0387
      6 C17       -12.0390   31.2220   16.1340 C.ar      1 O3Y        -0.0754
      7 C18       -12.5580   32.3790   16.7240 C.ar      1 O3Y        -0.0772
      8 C19       -13.5260   32.2910   17.7430 C.ar      1 O3Y        -0.0754
      9 C20       -13.9870   31.0230   18.1780 C.ar      1 O3Y        -0.0387
     10 C21       -18.2080   23.8230   20.8740 C.3       1 O3Y        -0.0555
     11 C22       -17.2170   22.8650   22.9550 C.3       1 O3Y        -0.0555
     12 C23       -14.8190   24.5090   16.7970 C.ar      1 O3Y         0.0071
     13 C24       -15.8980   24.4070   15.9110 C.ar      1 O3Y         0.0532
     14 C25       -15.7430   23.9750   14.5810 C.ar      1 O3Y        -0.0440
     15 C26       -14.4740   23.6070   14.1670 C.ar      1 O3Y        -0.0585
     16 C27       -13.4020   23.6580   15.0450 C.ar      1 O3Y        -0.0579
     17 C28       -13.5680   24.1100   16.3470 C.ar      1 O3Y        -0.0489
     18 C10       -15.4910   25.3240   20.5190 C.ar      1 O3Y         0.0369
     19 C4        -14.9160   25.1280   18.1620 C.ar      1 O3Y         0.0200
     20 C5        -15.3700   24.5170   19.3280 C.ar      1 O3Y         0.0576
     21 C6        -15.6220   23.0680   19.4140 C.2       1 O3Y         0.1270
     22 C7        -16.1170   22.4740   20.7330 C.3       1 O3Y         0.0275
     23 C8        -16.9040   23.4860   21.5790 C.3       1 O3Y        -0.0070
     24 C9        -16.0400   24.7430   21.7980 C.3       1 O3Y         0.0054
     25 N1        -15.1750   26.5920   20.6700 N.ar      1 O3Y        -0.2721
     26 N11       -13.8960   28.6130   18.0700 N.am      1 O3Y        -0.1133
     27 N12       -14.2770   28.4910   19.4220 N.pl3     1 O3Y        -0.1760
     28 O14       -15.4060   22.3190   18.4520 O.2       1 O3Y        -0.3868
     29 O30       -13.8660   27.4290   16.0480 O.2       1 O3Y        -0.3790
     30 CL29      -17.4610   24.7420   16.4580 Cl        1 O3Y        -0.0663
     31 H1        -12.0681   29.0518   16.1041 H         1 O3Y         0.0503
     32 H2        -11.2974   31.3056   15.3478 H         1 O3Y         0.0577
     33 H3        -12.2121   33.3519   16.3940 H         1 O3Y         0.0488
     34 H4        -13.9192   33.1942   18.1954 H         1 O3Y         0.0577
     35 H5        -14.7366   30.9356   18.9561 H         1 O3Y         0.0503
     36 H6        -18.7974   22.9048   20.7348 H         1 O3Y         0.0238
     37 H7        -17.9896   24.2707   19.8933 H         1 O3Y         0.0238
     38 H8        -18.7806   24.5373   21.4838 H         1 O3Y         0.0238
     39 H9        -16.2760   22.6194   23.4690 H         1 O3Y         0.0238
     40 H10       -17.8096   21.9486   22.8175 H         1 O3Y         0.0238
     41 H11       -17.7886   23.5839   23.5603 H         1 O3Y         0.0238
     42 H12       -16.5882   23.9317   13.9036 H         1 O3Y         0.0631
     43 H13       -14.3171   23.2759   13.1468 H         1 O3Y         0.0641
     44 H14       -12.4211   23.3406   14.7102 H         1 O3Y         0.0627
     45 H15       -12.7160   24.1516   17.0159 H         1 O3Y         0.0651
     46 H16       -15.2476   22.1309   21.3130 H         1 O3Y         0.0489
     47 H17       -16.7704   21.6176   20.5103 H         1 O3Y         0.0489
     48 H18       -16.6570   25.5082   22.2917 H         1 O3Y         0.0483
     49 H19       -15.1954   24.4760   22.4502 H         1 O3Y         0.0483
     50 H20       -14.2642   29.2108   20.1587 H         1 O3Y         0.2219
@<TRIPOS>BOND
     1    2    1 ar 
     2   25    1 ar 
     3    1   27 1  
     4    2    3 1  
     5   19    2 ar 
     6    3   26 am 
     7    3   29 2  
     8    4    5 ar 
     9    4    9 ar 
    10   26    4 1  
    11    5    6 ar 
    12    6    7 ar 
    13    8    7 ar 
    14    9    8 ar 
    15   23   10 1  
    16   23   11 1  
    17   12   13 ar 
    18   12   17 ar 
    19   19   12 1  
    20   13   14 ar 
    21   13   30 1  
    22   14   15 ar 
    23   16   15 ar 
    24   17   16 ar 
    25   20   18 ar 
    26   18   24 1  
    27   18   25 ar 
    28   20   19 ar 
    29   21   20 1  
    30   22   21 1  
    31   21   28 2  
    32   22   23 1  
    33   23   24 1  
    34   26   27 1  
    35    5   31 1  
    36    6   32 1  
    37    7   33 1  
    38    8   34 1  
    39    9   35 1  
    40   10   36 1  
    41   10   37 1  
    42   10   38 1  
    43   11   39 1  
    44   11   40 1  
    45   11   41 1  
    46   14   42 1  
    47   15   43 1  
    48   16   44 1  
    49   17   45 1  
    50   22   46 1  
    51   22   47 1  
    52   24   48 1  
    53   24   49 1  
    54   27   50 1  
@<TRIPOS>SUBSTRUCTURE
     1 O3Y         1

