### 
### Created by X-TOOL on Mon Aug  2 16:16:00 2021
### 

@<TRIPOS>MOLECULE
6p84_ligand
   47    51     1     0     0
SMALL
GAST_HUCK


@<TRIPOS>ATOM
      1 C2        -14.9220   27.0670   19.4210 C.ar      1 O3V         0.1509
      2 C3        -14.8210   26.3930   18.1570 C.ar      1 O3V         0.1034
      3 C4        -15.2360   25.0390   18.0300 C.ar      1 O3V         0.0227
      4 C5        -15.7070   24.4260   19.1890 C.ar      1 O3V         0.0531
      5 C6        -16.0220   22.9930   19.2630 C.2       1 O3V         0.1242
      6 C7        -16.5480   22.4300   20.5630 C.3       1 O3V         0.0268
      7 C8        -17.3640   23.4410   21.3630 C.3       1 O3V        -0.0072
      8 C13       -14.2740   27.3540   17.2900 C.2       1 O3V         0.2494
      9 C17       -12.0170   30.9350   16.1110 C.ar      1 O3V        -0.0754
     10 C18       -12.4230   32.1190   16.7040 C.ar      1 O3V        -0.0772
     11 C19       -13.3780   32.1080   17.7110 C.ar      1 O3V        -0.0754
     12 C20       -13.9300   30.9060   18.1430 C.ar      1 O3V        -0.0387
     13 C21       -17.7890   22.8140   22.6810 C.3       1 O3V        -0.0555
     14 C22       -18.6180   23.8910   20.5770 C.3       1 O3V        -0.0555
     15 C25       -14.0840   23.9570   16.0270 C.2       1 O3V        -0.0588
     16 C26       -14.3960   23.5290   14.6840 C.2       1 O3V        -0.0643
     17 C27       -15.7140   23.7160   14.3810 C.2       1 O3V         0.0025
     18 C10       -15.8110   25.2090   20.4050 C.ar      1 O3V         0.0328
     19 C15       -13.5060   29.7260   17.5460 C.ar      1 O3V         0.0962
     20 C16       -12.5460   29.7150   16.5140 C.ar      1 O3V        -0.0387
     21 C24       -15.1970   24.4580   16.6820 C.2       1 O3V         0.0464
     22 C9        -16.4630   24.6360   21.6630 C.3       1 O3V         0.0045
     23 N1        -15.4300   26.4710   20.5440 N.ar      1 O3V        -0.2766
     24 N11       -14.0650   28.4920   18.0280 N.am      1 O3V        -0.1142
     25 N12       -14.4600   28.3530   19.3530 N.pl3     1 O3V        -0.1772
     26 O14       -15.8740   22.2450   18.3110 O.2       1 O3V        -0.3886
     27 O23       -14.0020   27.3570   15.9820 O.2       1 O3V        -0.3809
     28 S28       -16.6040   24.3950   15.6760 S.3       1 O3V        -0.0307
     29 H1        -15.6940   22.1054   21.1756 H         1 O3V         0.0488
     30 H2        -17.1873   21.5639   20.3369 H         1 O3V         0.0488
     31 H3        -11.2755   30.9605   15.3207 H         1 O3V         0.0577
     32 H4        -11.9924   33.0595   16.3798 H         1 O3V         0.0487
     33 H5        -13.6955   33.0406   18.1633 H         1 O3V         0.0577
     34 H6        -14.6758   30.8910   18.9295 H         1 O3V         0.0503
     35 H7        -18.3776   23.5409   23.2599 H         1 O3V         0.0238
     36 H8        -16.8959   22.5255   23.2547 H         1 O3V         0.0238
     37 H9        -18.4011   21.9219   22.4822 H         1 O3V         0.0238
     38 H10       -18.3098   24.3446   19.6234 H         1 O3V         0.0238
     39 H11       -19.1773   24.6293   21.1704 H         1 O3V         0.0238
     40 H12       -19.2586   23.0192   20.3782 H         1 O3V         0.0238
     41 H13       -13.0921   23.8936   16.4720 H         1 O3V         0.0521
     42 H14       -13.6665   23.1070   13.9943 H         1 O3V         0.0450
     43 H15       -16.1526   23.4603   13.4176 H         1 O3V         0.0818
     44 H16       -12.2313   28.7869   16.0508 H         1 O3V         0.0503
     45 H17       -15.6710   24.3153   22.3557 H         1 O3V         0.0481
     46 H18       -17.0677   25.4234   22.1366 H         1 O3V         0.0481
     47 H19       -14.4154   29.0535   20.1068 H         1 O3V         0.2216
@<TRIPOS>BOND
     1    2    1 ar 
     2    1   23 ar 
     3    1   25 1  
     4    2    3 ar 
     5    8    2 1  
     6    3    4 ar 
     7    3   21 1  
     8    4    5 1  
     9    4   18 ar 
    10    5    6 1  
    11    5   26 2  
    12    6    7 1  
    13    7   13 1  
    14    7   14 1  
    15   22    7 1  
    16   24    8 am 
    17    8   27 2  
    18    9   10 ar 
    19   20    9 ar 
    20   11   10 ar 
    21   12   11 ar 
    22   19   12 ar 
    23   15   16 1  
    24   21   15 2  
    25   16   17 2  
    26   17   28 1  
    27   18   22 1  
    28   23   18 ar 
    29   19   20 ar 
    30   19   24 1  
    31   21   28 1  
    32   24   25 1  
    33    6   29 1  
    34    6   30 1  
    35    9   31 1  
    36   10   32 1  
    37   11   33 1  
    38   12   34 1  
    39   13   35 1  
    40   13   36 1  
    41   13   37 1  
    42   14   38 1  
    43   14   39 1  
    44   14   40 1  
    45   15   41 1  
    46   16   42 1  
    47   17   43 1  
    48   20   44 1  
    49   22   45 1  
    50   22   46 1  
    51   25   47 1  
@<TRIPOS>SUBSTRUCTURE
     1 O3V         1

