### 
### Created by X-TOOL on Mon Aug  2 16:11:10 2021
### 

@<TRIPOS>MOLECULE
6p85_ligand
   43    45     1     0     0
SMALL
GAST_HUCK


@<TRIPOS>ATOM
      1 C1        -11.6280   27.5730   15.3520 C.2       1 O4V         0.1859
      2 C2        -11.8030   27.8890   16.7450 C.2       1 O4V         0.2124
      3 C12       -14.0450   29.9010   18.1750 C.ar      1 O4V         0.1285
      4 C13        -9.7360   29.7660   14.6650 C.ar      1 O4V        -0.0439
      5 C14        -9.4980   28.8180   12.4700 C.ar      1 O4V        -0.0439
      6 C15        -9.0090   30.0340   11.9890 C.ar      1 O4V        -0.0588
      7 C16        -9.2540   30.9850   14.1960 C.ar      1 O4V        -0.0588
      8 C17        -8.8860   31.1150   12.8710 C.ar      1 O4V        -0.0460
      9 C18       -14.5350   27.6070   18.8200 C.ar      1 O4V        -0.0332
     10 C20       -14.7760   30.3860   19.2520 C.ar      1 O4V        -0.0363
     11 C21       -13.5350   32.1380   17.4420 C.3       1 O4V         0.0664
     12 C22        -8.3480   32.3940   12.3930 C.3       1 O4V        -0.0311
     13 C23       -15.2660   28.0830   19.9050 C.ar      1 O4V        -0.0768
     14 C24       -12.4400   32.6330   16.4910 C.3       1 O4V        -0.0373
     15 C25       -15.3810   29.4680   20.1120 C.ar      1 O4V        -0.0774
     16 C7        -13.9350   28.5370   17.9710 C.ar      1 O4V         0.1477
     17 C8         -9.8560   28.6700   13.8230 C.ar      1 O4V         0.0808
     18 N11       -10.9000   27.9710   17.7780 N.pl3     1 O4V        -0.3053
     19 N3        -13.2070   28.1150   16.8530 N.pl3     1 O4V        -0.1122
     20 N5        -12.9210   27.6200   14.7570 N.2       1 O4V        -0.2263
     21 N6        -13.8170   27.9280   15.6130 N.2       1 O4V        -0.1088
     22 O10        -9.3040   26.7990   15.3210 O.2       1 O4V        -0.1709
     23 O19       -13.4000   30.7110   17.2740 O.3       1 O4V        -0.3183
     24 O9        -10.6750   26.3630   13.3280 O.2       1 O4V        -0.1709
     25 S4        -10.3260   27.2160   14.4210 S.o2      1 O4V         0.0169
     26 H1        -10.0225   29.6716   15.7062 H         1 O4V         0.0618
     27 H2         -9.6032   27.9778   11.7932 H         1 O4V         0.0618
     28 H3         -8.7284   30.1400   10.9473 H         1 O4V         0.0557
     29 H4         -9.1677   31.8303   14.8692 H         1 O4V         0.0557
     30 H5        -14.4348   26.5428   18.6399 H         1 O4V         0.0554
     31 H6        -14.8743   31.4523   19.4206 H         1 O4V         0.0522
     32 H7        -14.5304   32.4911   17.1348 H         1 O4V         0.0609
     33 H8        -13.3412   32.4452   18.4803 H         1 O4V         0.0609
     34 H9         -8.1111   32.3147   11.3217 H         1 O4V         0.0391
     35 H10        -7.4339   32.6397   12.9534 H         1 O4V         0.0391
     36 H11        -9.0957   33.1863   12.5455 H         1 O4V         0.0391
     37 H12       -15.7440   27.3887   20.5866 H         1 O4V         0.0507
     38 H13       -12.4125   33.7326   16.5042 H         1 O4V         0.0255
     39 H14       -12.6554   32.2839   15.4704 H         1 O4V         0.0255
     40 H15       -11.4661   32.2380   16.8158 H         1 O4V         0.0255
     41 H16       -15.9523   29.8317   20.9584 H         1 O4V         0.0531
     42 H17        -9.9010   27.7902   17.6043 H         1 O4V         0.1779
     43 H18       -11.2223   28.2132   18.7258 H         1 O4V         0.1779
@<TRIPOS>BOND
     1    1    2 2  
     2    1   20 1  
     3   25    1 1  
     4    2   18 1  
     5    2   19 1  
     6    3   10 ar 
     7   16    3 ar 
     8    3   23 1  
     9    4    7 ar 
    10   17    4 ar 
    11    5    6 ar 
    12   17    5 ar 
    13    6    8 ar 
    14    7    8 ar 
    15    8   12 1  
    16    9   13 ar 
    17   16    9 ar 
    18   10   15 ar 
    19   11   14 1  
    20   23   11 1  
    21   13   15 ar 
    22   19   16 1  
    23   17   25 1  
    24   19   21 1  
    25   20   21 2  
    26   25   22 2  
    27   25   24 2  
    28    4   26 1  
    29    5   27 1  
    30    6   28 1  
    31    7   29 1  
    32    9   30 1  
    33   10   31 1  
    34   11   32 1  
    35   11   33 1  
    36   12   34 1  
    37   12   35 1  
    38   12   36 1  
    39   13   37 1  
    40   14   38 1  
    41   14   39 1  
    42   14   40 1  
    43   15   41 1  
    44   18   42 1  
    45   18   43 1  
@<TRIPOS>SUBSTRUCTURE
     1 O4V         1

