### 
### Created by X-TOOL on Mon Aug  2 16:11:11 2021
### 

@<TRIPOS>MOLECULE
6p86_ligand
   69    73     1     0     0
SMALL
GAST_HUCK


@<TRIPOS>ATOM
      1 C2         -8.7100   27.4590   13.3540 C.2       1 O4S         0.2299
      2 C3        -10.4500   28.2470   14.9080 C.ar      1 O4S         0.0972
      3 C11        -9.8040   25.8150   14.8130 C.3       1 O4S         0.1417
      4 C12       -11.0120   30.6050   15.1450 C.ar      1 O4S        -0.0501
      5 C13       -11.0790   25.1930   14.2260 C.2       1 O4S         0.2055
      6 C15       -12.0700   30.3000   15.9890 C.ar      1 O4S        -0.0687
      7 C19        -8.9010   31.3520   13.2930 C.3       1 O4S         0.0280
      8 C20       -12.7890   23.3670   14.2680 C.3       1 O4S         0.0615
      9 C21       -13.9660   23.7160   15.1590 C.ar      1 O4S        -0.0277
     10 C22       -16.0610   24.3730   16.8920 C.ar      1 O4S        -0.0500
     11 C23       -13.7970   23.6400   16.5280 C.ar      1 O4S        -0.0649
     12 C24       -15.2020   24.1250   14.6350 C.ar      1 O4S        -0.0649
     13 C25        -9.1440   29.0430   11.4860 C.3       1 O4S        -0.0126
     14 C26       -14.8330   23.9660   17.3860 C.ar      1 O4S        -0.0668
     15 C27       -16.2590   24.4580   15.5070 C.ar      1 O4S        -0.0668
     16 C28       -14.5880   27.3930   18.9130 C.3       1 O4S         0.0332
     17 C29       -12.2310   26.8450   18.4710 C.3       1 O4S         0.0332
     18 C30       -17.1260   24.6850   17.8930 C.3       1 O4S        -0.0251
     19 C31        -9.5060   31.4670   11.9040 C.3       1 O4S        -0.0331
     20 C32       -14.1120   26.3560   19.9450 C.3       1 O4S        -0.0308
     21 C33       -12.5680   26.4560   19.9300 C.3       1 O4S        -0.0308
     22 C34        -8.8590   30.4550   10.9440 C.3       1 O4S        -0.0471
     23 C35       -18.4930   24.6560   17.2210 C.3       1 O4S        -0.0563
     24 C5        -10.1700   29.6060   14.5960 C.ar      1 O4S         0.0719
     25 C6         -8.4770   28.8910   12.8720 C.3       1 O4S         0.1314
     26 C7        -13.4570   28.6920   17.1720 C.2       1 O4S         0.1941
     27 C8        -11.5260   27.9540   15.7690 C.ar      1 O4S        -0.0322
     28 C9        -12.3120   28.9940   16.2980 C.ar      1 O4S         0.0225
     29 N1         -9.6460   27.2000   14.3490 N.am      1 O4S        -0.2023
     30 N10       -13.3880   27.6980   18.1060 N.am      1 O4S        -0.2745
     31 N17       -11.5380   24.0080   14.8010 N.am      1 O4S        -0.2746
     32 N4         -9.0160   29.9350   13.8010 N.pl3     1 O4S        -0.2897
     33 O14        -8.0880   26.5360   12.8520 O.2       1 O4S        -0.3837
     34 O16       -14.4910   29.3320   17.0910 O.2       1 O4S        -0.3907
     35 O18       -11.6940   25.7200   13.3070 O.2       1 O4S        -0.3942
     36 H1         -8.9328   25.2246   14.4930 H         1 O4S         0.0825
     37 H2         -9.8695   25.8065   15.9110 H         1 O4S         0.0825
     38 H3        -10.8229   31.6432   14.8969 H         1 O4S         0.0482
     39 H4        -12.6942   31.0871   16.3963 H         1 O4S         0.0511
     40 H5         -9.4349   32.0271   13.9780 H         1 O4S         0.0513
     41 H6         -7.8394   31.6369   13.2508 H         1 O4S         0.0513
     42 H7        -12.9813   23.7337   13.2489 H         1 O4S         0.0670
     43 H8        -12.6588   22.2750   14.2463 H         1 O4S         0.0670
     44 H9        -12.8437   23.3219   16.9342 H         1 O4S         0.0540
     45 H10       -15.3439   24.1848   13.5620 H         1 O4S         0.0540
     46 H11        -8.7326   28.2928   10.7947 H         1 O4S         0.0312
     47 H12       -10.2301   28.8971   11.5816 H         1 O4S         0.0312
     48 H13       -14.6813   23.9020   18.4574 H         1 O4S         0.0540
     49 H14       -17.2159   24.7768   15.1098 H         1 O4S         0.0540
     50 H15       -14.9578   28.2989   19.4156 H         1 O4S         0.0521
     51 H16       -15.3843   26.9735   18.2806 H         1 O4S         0.0521
     52 H17       -12.1690   25.9572   17.8245 H         1 O4S         0.0521
     53 H18       -11.2867   27.4064   18.4147 H         1 O4S         0.0521
     54 H19       -16.9482   25.6851   18.3152 H         1 O4S         0.0410
     55 H20       -17.0997   23.9368   18.6989 H         1 O4S         0.0410
     56 H21        -9.3403   32.4848   11.5211 H         1 O4S         0.0284
     57 H22       -10.5864   31.2688   11.9631 H         1 O4S         0.0284
     58 H23       -14.4368   25.3456   19.6560 H         1 O4S         0.0285
     59 H24       -14.5053   26.5959   20.9439 H         1 O4S         0.0285
     60 H25       -12.2197   27.2289   20.6309 H         1 O4S         0.0285
     61 H26       -12.1113   25.4903   20.1924 H         1 O4S         0.0285
     62 H27        -9.2914   30.5641    9.9385 H         1 O4S         0.0268
     63 H28        -7.7733   30.6255   10.8968 H         1 O4S         0.0268
     64 H29       -19.2714   24.8864   17.9633 H         1 O4S         0.0250
     65 H30       -18.6731   23.6562   16.7991 H         1 O4S         0.0250
     66 H31       -18.5216   25.4045   16.4154 H         1 O4S         0.0250
     67 H32        -7.3933   29.0504   12.7717 H         1 O4S         0.0796
     68 H33       -11.7489   26.9244   16.0246 H         1 O4S         0.0506
     69 H34       -11.0399   23.5890   15.5602 H         1 O4S         0.1877
@<TRIPOS>BOND
     1   25    1 1  
     2   29    1 am 
     3    1   33 2  
     4   24    2 ar 
     5    2   27 ar 
     6    2   29 1  
     7    3    5 1  
     8   29    3 1  
     9    6    4 ar 
    10    4   24 ar 
    11    5   31 am 
    12    5   35 2  
    13   28    6 ar 
    14    7   19 1  
    15   32    7 1  
    16    8    9 1  
    17   31    8 1  
    18    9   11 ar 
    19    9   12 ar 
    20   14   10 ar 
    21   15   10 ar 
    22   10   18 1  
    23   11   14 ar 
    24   12   15 ar 
    25   13   22 1  
    26   25   13 1  
    27   16   20 1  
    28   30   16 1  
    29   17   21 1  
    30   30   17 1  
    31   18   23 1  
    32   19   22 1  
    33   21   20 1  
    34   24   32 1  
    35   32   25 1  
    36   26   28 1  
    37   26   30 am 
    38   26   34 2  
    39   27   28 ar 
    40    3   36 1  
    41    3   37 1  
    42    4   38 1  
    43    6   39 1  
    44    7   40 1  
    45    7   41 1  
    46    8   42 1  
    47    8   43 1  
    48   11   44 1  
    49   12   45 1  
    50   13   46 1  
    51   13   47 1  
    52   14   48 1  
    53   15   49 1  
    54   16   50 1  
    55   16   51 1  
    56   17   52 1  
    57   17   53 1  
    58   18   54 1  
    59   18   55 1  
    60   19   56 1  
    61   19   57 1  
    62   20   58 1  
    63   20   59 1  
    64   21   60 1  
    65   21   61 1  
    66   22   62 1  
    67   22   63 1  
    68   23   64 1  
    69   23   65 1  
    70   23   66 1  
    71   25   67 1  
    72   27   68 1  
    73   31   69 1  
@<TRIPOS>SUBSTRUCTURE
     1 O4S         1

