### 
### Created by X-TOOL on Mon Aug  2 16:11:12 2021
### 

@<TRIPOS>MOLECULE
6p87_ligand
   51    54     1     0     0
SMALL
GAST_HUCK


@<TRIPOS>ATOM
      1 C1        -13.4810   27.7610   16.5390 C.2       1 O4P        -0.0076
      2 C2        -13.0570   26.6330   15.6480 C.3       1 O4P         0.1063
      3 C3        -14.3920   27.7540   17.5830 C.2       1 O4P         0.0215
      4 C12        -9.2760   26.0880   14.6010 C.3       1 O4P         0.1569
      5 C13       -13.8880   24.7040   17.1220 C.2       1 O4P        -0.0786
      6 C14       -14.7540   23.0770   15.7230 C.2       1 O4P        -0.0196
      7 C16        -8.7730   27.4980   12.7410 C.ar      1 O4P         0.1229
      8 C17       -14.4910   23.4090   17.0060 C.2       1 O4P        -0.0930
      9 C18        -8.6820   27.6590   11.2830 C.ar      1 O4P         0.1196
     10 C20       -10.9010   26.3780   17.0330 C.3       1 O4P         0.0268
     11 C21       -12.0620   29.7630   15.5730 C.ar      1 O4P        -0.0744
     12 C22       -13.4040   31.2720   17.5810 C.ar      1 O4P        -0.0442
     13 C23        -8.8030   28.6270   13.6290 C.ar      1 O4P        -0.0413
     14 C24        -8.5630   28.9870   10.8390 C.ar      1 O4P        -0.0415
     15 C25        -8.3720   26.5580    8.9370 C.3       1 O4P         0.0569
     16 C26       -11.8270   31.1220   15.7410 C.ar      1 O4P        -0.0792
     17 C27       -12.4960   31.8680   16.7350 C.ar      1 O4P        -0.0767
     18 C28        -8.5800   30.0750   11.7640 C.ar      1 O4P        -0.0819
     19 C29        -8.7100   29.9040   13.1340 C.ar      1 O4P        -0.0819
     20 C10       -13.6370   29.8960   17.4110 C.ar      1 O4P         0.0608
     21 C4        -12.9820   29.1270   16.4150 C.ar      1 O4P        -0.0171
     22 C7        -13.7150   25.2990   15.9100 C.2       1 O4P         0.0422
     23 C8        -10.8110   26.2520   14.5260 C.2       1 O4P         0.2122
     24 N5        -11.5490   26.4360   15.6980 N.am      1 O4P        -0.2527
     25 N6        -14.4900   29.0460   18.1180 N.pl3     1 O4P        -0.2882
     26 O11        -8.7720   26.2240   13.2770 O.3       1 O4P        -0.3014
     27 O15       -11.3510   26.1890   13.4280 O.2       1 O4P        -0.3936
     28 O19        -8.8230   26.5380   10.3780 O.3       1 O4P        -0.3250
     29 S9        -14.2960   24.2890   14.6350 S.3       1 O4P        -0.0414
     30 H1        -13.3268   26.9280   14.6232 H         1 O4P         0.0833
     31 H2        -14.9443   26.8829   17.9325 H         1 O4P         0.0806
     32 H3         -9.0223   25.0950   15.0004 H         1 O4P         0.0854
     33 H4         -8.8454   26.8651   15.2496 H         1 O4P         0.0854
     34 H5        -13.6017   25.1588   18.0691 H         1 O4P         0.0279
     35 H6        -15.2098   22.1346   15.4228 H         1 O4P         0.0597
     36 H7        -14.7122   22.7653   17.8560 H         1 O4P         0.0371
     37 H8         -9.8177   26.2332   16.9087 H         1 O4P         0.0490
     38 H9        -11.3195   25.5386   17.6076 H         1 O4P         0.0490
     39 H10       -11.0857   27.3192   17.5715 H         1 O4P         0.0490
     40 H11       -11.5418   29.2047   14.8031 H         1 O4P         0.0540
     41 H12       -13.9185   31.8407   18.3472 H         1 O4P         0.0542
     42 H13        -8.8997   28.4694   14.6971 H         1 O4P         0.0509
     43 H14        -8.4568   29.1885    9.7792 H         1 O4P         0.0509
     44 H15        -8.5920   25.5864    8.4705 H         1 O4P         0.0573
     45 H16        -7.2895   26.7485    8.8942 H         1 O4P         0.0573
     46 H17        -8.9060   27.3535    8.3966 H         1 O4P         0.0573
     47 H18       -11.1140   31.6204   15.0943 H         1 O4P         0.0510
     48 H19       -12.2915   32.9279   16.8339 H         1 O4P         0.0530
     49 H20        -8.4868   31.0831   11.3765 H         1 O4P         0.0495
     50 H21        -8.7376   30.7595   13.7991 H         1 O4P         0.0495
     51 H22       -15.0935   29.3234   18.9052 H         1 O4P         0.2220
@<TRIPOS>BOND
     1    2    1 1  
     2    1    3 2  
     3    1   21 1  
     4    2   22 1  
     5   24    2 1  
     6    3   25 1  
     7   23    4 1  
     8    4   26 1  
     9    5    8 1  
    10   22    5 2  
    11    6    8 2  
    12   29    6 1  
    13    7    9 ar 
    14    7   13 ar 
    15   26    7 1  
    16    9   14 ar 
    17    9   28 1  
    18   24   10 1  
    19   11   16 ar 
    20   21   11 ar 
    21   12   17 ar 
    22   20   12 ar 
    23   13   19 ar 
    24   14   18 ar 
    25   28   15 1  
    26   16   17 ar 
    27   19   18 ar 
    28   21   20 ar 
    29   20   25 1  
    30   22   29 1  
    31   23   24 am 
    32   23   27 2  
    33    2   30 1  
    34    3   31 1  
    35    4   32 1  
    36    4   33 1  
    37    5   34 1  
    38    6   35 1  
    39    8   36 1  
    40   10   37 1  
    41   10   38 1  
    42   10   39 1  
    43   11   40 1  
    44   12   41 1  
    45   13   42 1  
    46   14   43 1  
    47   15   44 1  
    48   15   45 1  
    49   15   46 1  
    50   16   47 1  
    51   17   48 1  
    52   18   49 1  
    53   19   50 1  
    54   25   51 1  
@<TRIPOS>SUBSTRUCTURE
     1 O4P         1

