### 
### Created by X-TOOL on Mon Aug  2 16:11:13 2021
### 

@<TRIPOS>MOLECULE
6p88_ligand
   43    46     1     0     0
SMALL
GAST_HUCK


@<TRIPOS>ATOM
      1 C1        -10.6860   29.8720   14.6260 C.2       1 O4G         0.2555
      2 C2        -14.7400   27.2540   17.5170 C.2       1 O4G         0.2214
      3 C3         -9.5960   30.3440   13.7620 C.2       1 O4G         0.1903
      4 C11       -13.7910   29.5180   17.8050 C.ar      1 O4G         0.0516
      5 C12       -12.2510   30.7160   16.3940 C.ar      1 O4G         0.0514
      6 C14        -8.9570   31.5610   13.7920 C.2       1 O4G        -0.0431
      7 C17       -12.7440   29.4830   16.8520 C.ar      1 O4G        -0.0228
      8 C19        -8.1300   30.3080   12.1300 C.2       1 O4G         0.0866
      9 C20       -16.1930   25.2820   17.4260 C.ar      1 O4G        -0.0610
     10 C21        -8.0040   31.5380   12.7280 C.2       1 O4G        -0.0557
     11 C22       -16.9940   24.2970   17.9840 C.ar      1 O4G        -0.0348
     12 C23       -13.7920   31.9270   17.7800 C.ar      1 O4G        -0.0882
     13 C24       -14.3050   30.7400   18.2640 C.ar      1 O4G        -0.0563
     14 C25       -12.7720   31.9290   16.8540 C.ar      1 O4G        -0.0564
     15 C26       -17.4120   24.0690   21.9520 C.3       1 O4G         0.0954
     16 C27       -17.2740   22.8150   21.1660 C.3       1 O4G         0.0965
     17 C10       -17.0090   24.1610   19.3670 C.ar      1 O4G         0.1256
     18 C6        -15.4330   26.1300   18.2320 C.ar      1 O4G         0.0357
     19 C7        -16.2350   25.0070   20.2070 C.ar      1 O4G         0.1257
     20 C8        -15.4210   26.0070   19.6430 C.ar      1 O4G        -0.0212
     21 N4        -11.1910   30.8600   15.4600 N.am      1 O4G        -0.2367
     22 N5        -14.4090   28.3390   18.3180 N.am      1 O4G        -0.2383
     23 O13       -16.3060   24.8820   21.5910 O.3       1 O4G        -0.3180
     24 O15       -11.0850   28.7000   14.5860 O.2       1 O4G        -0.3785
     25 O16       -14.4950   27.2240   16.3020 O.2       1 O4G        -0.3782
     26 O18       -17.7780   23.1400   19.8920 O.3       1 O4G        -0.3155
     27 O9         -9.0990   29.5580   12.7480 O.3       1 O4G        -0.2500
     28 H1         -9.1406   32.3786   14.4875 H         1 O4G         0.0434
     29 H2        -12.3400   28.5441   16.4911 H         1 O4G         0.0376
     30 H3         -7.5395   29.9725   11.2787 H         1 O4G         0.1039
     31 H4        -16.1569   25.3946   16.3485 H         1 O4G         0.0551
     32 H5         -7.3165   32.3347   12.4477 H         1 O4G         0.0364
     33 H6        -17.5943   23.6484   17.3562 H         1 O4G         0.0524
     34 H7        -14.1967   32.8687   18.1329 H         1 O4G         0.0541
     35 H8        -15.1033   30.7523   18.9972 H         1 O4G         0.0382
     36 H9        -12.3750   32.8672   16.4836 H         1 O4G         0.0382
     37 H10       -17.3887   23.8490   23.0295 H         1 O4G         0.0636
     38 H11       -18.3560   24.5750   21.7013 H         1 O4G         0.0636
     39 H12       -17.8616   22.0041   21.6212 H         1 O4G         0.0638
     40 H13       -16.2188   22.5112   21.1007 H         1 O4G         0.0638
     41 H14       -14.8111   26.6552   20.2618 H         1 O4G         0.0557
     42 H15       -10.7661   31.7630   15.3969 H         1 O4G         0.2243
     43 H16       -14.6125   28.2919   19.2959 H         1 O4G         0.2246
@<TRIPOS>BOND
     1    1    3 1  
     2   21    1 am 
     3    1   24 2  
     4   18    2 1  
     5    2   22 am 
     6    2   25 2  
     7    3    6 2  
     8    3   27 1  
     9    4    7 ar 
    10    4   13 ar 
    11   22    4 1  
    12    7    5 ar 
    13    5   14 ar 
    14    5   21 1  
    15    6   10 1  
    16    8   10 2  
    17   27    8 1  
    18   11    9 ar 
    19    9   18 ar 
    20   17   11 ar 
    21   13   12 ar 
    22   12   14 ar 
    23   16   15 1  
    24   15   23 1  
    25   26   16 1  
    26   17   19 ar 
    27   17   26 1  
    28   18   20 ar 
    29   19   20 ar 
    30   19   23 1  
    31    6   28 1  
    32    7   29 1  
    33    8   30 1  
    34    9   31 1  
    35   10   32 1  
    36   11   33 1  
    37   12   34 1  
    38   13   35 1  
    39   14   36 1  
    40   15   37 1  
    41   15   38 1  
    42   16   39 1  
    43   16   40 1  
    44   20   41 1  
    45   21   42 1  
    46   22   43 1  
@<TRIPOS>SUBSTRUCTURE
     1 O4G         1

