### 
### Created by X-TOOL on Mon Aug  2 16:11:14 2021
### 

@<TRIPOS>MOLECULE
6p89_ligand
   47    51     1     0     0
SMALL
GAST_HUCK


@<TRIPOS>ATOM
      1 C2         -8.9830   26.5960   12.3410 C.2       1 O4A         0.0901
      2 C3         -9.0980   27.9800   12.7340 C.ar      1 O4A         0.0277
      3 C11       -15.3630   24.5860   16.5610 C.ar      1 O4A         0.1076
      4 C12       -14.0030   24.5980   16.4440 C.ar      1 O4A        -0.0207
      5 C13        -8.1000   27.2340   10.1080 C.3       1 O4A         0.0918
      6 C14        -9.8510   28.5420   13.8100 C.ar      1 O4A        -0.0613
      7 C16       -16.1900   24.2610   15.5270 C.ar      1 O4A         0.1045
      8 C17       -13.4350   24.2910   15.2350 C.ar      1 O4A         0.0466
      9 C21        -8.2190   30.2000   12.2350 C.ar      1 O4A        -0.0393
     10 C22       -15.6270   23.9430   14.2470 C.ar      1 O4A        -0.0541
     11 C23        -9.7750   29.9260   14.0550 C.ar      1 O4A        -0.0583
     12 C24       -14.2440   23.9630   14.1140 C.ar      1 O4A        -0.0605
     13 C25        -8.9590   30.7240   13.2960 C.ar      1 O4A        -0.0705
     14 C26       -17.0430   24.3440   17.9830 C.3       1 O4A         0.0944
     15 C27       -18.0070   24.7500   16.8460 C.3       1 O4A         0.0920
     16 C28       -10.6620   30.5470   15.1020 C.3       1 O4A        -0.0366
     17 C5         -8.4970   26.2170   11.0870 C.2       1 O4A         0.0064
     18 C6         -9.7910   25.2050   14.3200 C.3       1 O4A         0.1601
     19 C7         -8.4730   24.8160   11.0230 C.2       1 O4A         0.0020
     20 C8        -11.3300   25.1300   14.1880 C.2       1 O4A         0.2326
     21 C9         -8.3070   28.8340   11.9430 C.ar      1 O4A         0.0966
     22 N1         -9.2400   25.3970   12.9950 N.pl3     1 O4A        -0.1909
     23 N15       -11.9870   24.3230   15.1220 N.am      1 O4A        -0.2401
     24 N4         -8.9320   24.3100   12.2090 N.2       1 O4A        -0.2204
     25 O10        -7.6270   28.4320   10.8090 O.3       1 O4A        -0.3133
     26 O18       -15.8160   24.9400   17.7910 O.3       1 O4A        -0.3226
     27 O19       -17.4990   24.1950   15.5950 O.3       1 O4A        -0.3287
     28 O20       -11.9390   25.7480   13.3400 O.2       1 O4A        -0.3831
     29 H1        -13.3806   24.8470   17.2959 H         1 O4A         0.0397
     30 H2         -8.9644   27.4947    9.4796 H         1 O4A         0.0713
     31 H3         -7.2926   26.8375    9.4748 H         1 O4A         0.0713
     32 H4        -10.4744   27.9092   14.4313 H         1 O4A         0.0509
     33 H5         -7.5814   30.8456   11.6420 H         1 O4A         0.0520
     34 H6        -16.2634   23.6937   13.4056 H         1 O4A         0.0475
     35 H7        -13.7848   23.7296   13.1602 H         1 O4A         0.0385
     36 H8         -8.8871   31.7813   13.5240 H         1 O4A         0.0517
     37 H9        -16.9213   23.2508   17.9854 H         1 O4A         0.0636
     38 H10       -17.4594   24.6687   18.9480 H         1 O4A         0.0636
     39 H11       -18.0562   25.8465   16.7737 H         1 O4A         0.0630
     40 H12       -19.0115   24.3505   17.0494 H         1 O4A         0.0630
     41 H13       -11.2403   29.7591   15.6068 H         1 O4A         0.0370
     42 H14       -11.3513   31.2584   14.6236 H         1 O4A         0.0370
     43 H15       -10.0422   31.0769   15.8403 H         1 O4A         0.0370
     44 H16        -9.4069   24.2694   14.7526 H         1 O4A         0.0877
     45 H17        -9.5120   26.0498   14.9669 H         1 O4A         0.0877
     46 H18        -8.1429   24.2268   10.1687 H         1 O4A         0.0635
     47 H19       -11.4418   23.7486   15.7327 H         1 O4A         0.2220
@<TRIPOS>BOND
     1    1    2 1  
     2    1   17 2  
     3   22    1 1  
     4    2    6 ar 
     5    2   21 ar 
     6    4    3 ar 
     7    3    7 ar 
     8    3   26 1  
     9    8    4 ar 
    10   17    5 1  
    11    5   25 1  
    12    6   11 ar 
    13   10    7 ar 
    14    7   27 1  
    15    8   12 ar 
    16   23    8 1  
    17    9   13 ar 
    18   21    9 ar 
    19   12   10 ar 
    20   11   13 ar 
    21   11   16 1  
    22   14   15 1  
    23   26   14 1  
    24   27   15 1  
    25   17   19 1  
    26   20   18 1  
    27   18   22 1  
    28   19   24 2  
    29   20   23 am 
    30   20   28 2  
    31   21   25 1  
    32   22   24 1  
    33    4   29 1  
    34    5   30 1  
    35    5   31 1  
    36    6   32 1  
    37    9   33 1  
    38   10   34 1  
    39   12   35 1  
    40   13   36 1  
    41   14   37 1  
    42   14   38 1  
    43   15   39 1  
    44   15   40 1  
    45   16   41 1  
    46   16   42 1  
    47   16   43 1  
    48   18   44 1  
    49   18   45 1  
    50   19   46 1  
    51   23   47 1  
@<TRIPOS>SUBSTRUCTURE
     1 O4A         1

