### 
### Created by X-TOOL on Mon Aug  2 16:11:15 2021
### 

@<TRIPOS>MOLECULE
6p8a_ligand
   58    61     1     0     0
SMALL
GAST_HUCK


@<TRIPOS>ATOM
      1 C1         -9.2510   27.0890   12.8230 C.2       1 O4D         0.1734
      2 C3        -10.4480   28.0220   14.4900 C.ar      1 O4D         0.1458
      3 C12        -9.9550   30.6510   14.0090 C.ar      1 O4D        -0.0415
      4 C13       -10.8420   30.1770   15.0400 C.ar      1 O4D         0.0045
      5 C14        -7.6100   25.8930   11.4010 C.2       1 O4D         0.0283
      6 C15        -8.9860   27.4250   10.3730 C.2       1 O4D         0.0283
      7 C16        -8.1930   26.8480    9.4080 C.2       1 O4D        -0.0847
      8 C17        -7.3340   25.8930   10.0400 C.2       1 O4D        -0.0847
      9 C21        -8.3660   30.2700   12.0790 C.3       1 O4D        -0.0252
     10 C22       -15.4670   23.9750   16.4940 C.3       1 O4D        -0.0299
     11 C23       -15.3990   24.0610   14.9440 C.3       1 O4D         0.0077
     12 C24       -17.1060   23.1090   18.3120 C.3       1 O4D        -0.0078
     13 C25       -17.6040   25.1150   16.7820 C.3       1 O4D        -0.0078
     14 C26       -14.1060   23.4110   14.3640 C.3       1 O4D         0.0358
     15 C27       -18.9510   25.1270   17.5420 C.3       1 O4D         0.0878
     16 C28       -18.3160   23.6750   19.1770 C.3       1 O4D         0.0878
     17 C29       -11.6540   31.1450   15.8240 C.3       1 O4D        -0.0198
     18 C10       -12.4330   25.2340   14.7250 C.2       1 O4D         0.2065
     19 C5         -9.5830   28.3730   13.3900 C.ar      1 O4D         0.0720
     20 C8         -9.3050   29.7580   13.1580 C.ar      1 O4D        -0.0286
     21 C9        -11.2300   25.7520   15.4880 C.3       1 O4D         0.1524
     22 N11       -16.9100   23.7770   16.9120 N.4       1 O4D         0.2385
     23 N2        -10.5130   26.6210   14.5280 N.pl3     1 O4D        -0.1794
     24 N20       -12.9210   23.9750   15.0550 N.am      1 O4D        -0.2845
     25 N4         -9.7890   26.0740   13.5240 N.2       1 O4D        -0.1794
     26 N6         -8.6280   26.8320   11.6080 N.pl3     1 O4D        -0.2350
     27 N7        -11.1000   28.8820   15.3280 N.ar      1 O4D        -0.2921
     28 O18       -12.8810   25.9390   13.8270 O.2       1 O4D        -0.3941
     29 O19       -18.6790   24.9250   18.8560 O.3       1 O4D        -0.3693
     30 H1         -9.7906   31.7162   13.8931 H         1 O4D         0.0490
     31 H2         -7.1275   25.2805   12.1612 H         1 O4D         0.0807
     32 H3         -9.7440   28.1912   10.2169 H         1 O4D         0.0807
     33 H4         -8.2151   27.0787    8.3439 H         1 O4D         0.0281
     34 H5         -6.5917   25.2730    9.5395 H         1 O4D         0.0281
     35 H6         -8.3307   31.3688   12.1149 H         1 O4D         0.0427
     36 H7         -8.7301   29.9470   11.0926 H         1 O4D         0.0427
     37 H8         -7.3574   29.8650   12.2483 H         1 O4D         0.0427
     38 H9        -15.0800   24.9065   16.9328 H         1 O4D         0.0815
     39 H10       -14.8616   23.1258   16.8436 H         1 O4D         0.0815
     40 H11       -15.4239   25.1202   14.6484 H         1 O4D         0.0336
     41 H12       -16.2732   23.5423   14.5236 H         1 O4D         0.0336
     42 H13       -17.2761   22.0338   18.1537 H         1 O4D         0.0837
     43 H14       -16.1805   23.2528   18.8888 H         1 O4D         0.0837
     44 H15       -16.9521   25.8982   17.1962 H         1 O4D         0.0837
     45 H16       -17.7916   25.3191   15.7175 H         1 O4D         0.0837
     46 H17       -14.0391   23.6240   13.2869 H         1 O4D         0.0522
     47 H18       -14.1395   22.3228   14.5212 H         1 O4D         0.0522
     48 H19       -19.6020   24.3243   17.1654 H         1 O4D         0.0613
     49 H20       -19.4501   26.0978   17.4066 H         1 O4D         0.0613
     50 H21       -18.0194   23.6624   20.2362 H         1 O4D         0.0613
     51 H22       -19.1837   23.0149   19.0313 H         1 O4D         0.0613
     52 H23       -12.2649   30.6004   16.5590 H         1 O4D         0.0421
     53 H24       -12.3119   31.7067   15.1446 H         1 O4D         0.0421
     54 H25       -10.9859   31.8439   16.3485 H         1 O4D         0.0421
     55 H26       -10.5879   24.9188   15.8095 H         1 O4D         0.0855
     56 H27       -11.5495   26.3294   16.3681 H         1 O4D         0.0855
     57 H28       -17.3308   23.1508   16.2435 H         1 O4D         0.2035
     58 H29       -12.4666   23.4418   15.7686 H         1 O4D         0.1851
@<TRIPOS>BOND
     1   19    1 1  
     2    1   25 2  
     3    1   26 1  
     4    2   19 ar 
     5   23    2 1  
     6    2   27 ar 
     7    4    3 ar 
     8   20    3 ar 
     9    4   17 1  
    10   27    4 ar 
    11    5    8 2  
    12   26    5 1  
    13    6    7 2  
    14   26    6 1  
    15    7    8 1  
    16   20    9 1  
    17   11   10 1  
    18   10   22 1  
    19   14   11 1  
    20   12   16 1  
    21   22   12 1  
    22   13   15 1  
    23   22   13 1  
    24   24   14 1  
    25   15   29 1  
    26   16   29 1  
    27   21   18 1  
    28   18   24 am 
    29   18   28 2  
    30   19   20 ar 
    31   21   23 1  
    32   23   25 1  
    33    3   30 1  
    34    5   31 1  
    35    6   32 1  
    36    7   33 1  
    37    8   34 1  
    38    9   35 1  
    39    9   36 1  
    40    9   37 1  
    41   10   38 1  
    42   10   39 1  
    43   11   40 1  
    44   11   41 1  
    45   12   42 1  
    46   12   43 1  
    47   13   44 1  
    48   13   45 1  
    49   14   46 1  
    50   14   47 1  
    51   15   48 1  
    52   15   49 1  
    53   16   50 1  
    54   16   51 1  
    55   17   52 1  
    56   17   53 1  
    57   17   54 1  
    58   21   55 1  
    59   21   56 1  
    60   22   57 1  
    61   24   58 1  
@<TRIPOS>SUBSTRUCTURE
     1 O4D         1

