### 
### Created by X-TOOL on Mon Aug  2 16:11:38 2021
### 

@<TRIPOS>MOLECULE
6p8x_ligand
   59    62     1     0     0
SMALL
GAST_HUCK


@<TRIPOS>ATOM
      1 C01         2.3150   72.0530  -27.9750 C.3       1 O5V        -0.0482
      2 C02         2.0030   72.0420  -29.5350 C.3       1 O5V         0.0346
      3 C03         0.5370   72.4700  -29.6960 C.2       1 O5V         0.1783
      4 O04        -0.3420   71.7510  -29.4530 O.2       1 O5V        -0.3969
      5 N05         0.1970   73.7810  -30.1710 N.am      1 O5V        -0.2687
      6 C06        -1.0510   74.5240  -30.4830 C.3       1 O5V         0.0588
      7 C07        -0.2490   75.6870  -30.9460 C.3       1 O5V         0.0825
      8 C08         0.9660   74.9800  -30.5290 C.3       1 O5V         0.0588
      9 N09        -0.0400   75.8830  -32.3550 N.am      1 O5V        -0.2777
     10 C10        -0.8880   76.6670  -33.1860 C.2       1 O5V         0.2077
     11 O11        -1.8420   77.1780  -32.7460 O.2       1 O5V        -0.3941
     12 C12        -0.4790   76.7500  -34.6450 C.3       1 O5V         0.1613
     13 O13        -0.9950   77.8850  -35.2600 O.3       1 O5V        -0.2902
     14 C14        -2.2770   77.6960  -35.7660 C.ar      1 O5V         0.1190
     15 C15        -2.9660   76.5190  -35.5160 C.ar      1 O5V        -0.0237
     16 C16        -4.2400   76.3410  -36.0180 C.ar      1 O5V        -0.0566
     17 C17        -4.8230   77.3520  -36.7670 C.ar      1 O5V         0.0070
     18 BR18       -6.6130   77.1480  -37.4770 Br        1 O5V        -0.0586
     19 C19        -4.1340   78.5270  -36.9990 C.ar      1 O5V        -0.0406
     20 C20        -2.8620   78.6910  -36.5170 C.ar      1 O5V         0.0820
     21 C21        -2.1150   79.9920  -36.7640 C.2       1 O5V         0.2059
     22 O22        -1.6210   80.2250  -37.8000 O.2       1 O5V        -0.3903
     23 N23        -2.0440   80.9290  -35.6710 N.am      1 O5V        -0.2562
     24 C24        -1.4030   82.2290  -35.6340 C.3       1 O5V         0.0579
     25 C25        -2.0730   82.9400  -34.4370 C.2       1 O5V        -0.0576
     26 C26        -2.5030   81.9970  -33.6100 C.2       1 O5V        -0.0261
     27 C27        -2.6300   80.7110  -34.3580 C.3       1 O5V         0.0602
     28 C28        -2.9970   82.2180  -32.1840 C.ar      1 O5V        -0.0305
     29 C29        -3.5670   81.1760  -31.4840 C.ar      1 O5V        -0.0600
     30 C30        -4.0100   81.3730  -30.1950 C.ar      1 O5V        -0.0656
     31 C31        -3.8830   82.6040  -29.6030 C.ar      1 O5V        -0.0657
     32 C32        -3.3160   83.6450  -30.3020 C.ar      1 O5V        -0.0656
     33 C33        -2.8750   83.4490  -31.5920 C.ar      1 O5V        -0.0600
     34 H1          3.3596   71.7515  -27.8079 H         1 O5V         0.0254
     35 H2          1.6436   71.3488  -27.4618 H         1 O5V         0.0254
     36 H3          2.1576   73.0662  -27.5767 H         1 O5V         0.0254
     37 H4          2.1497   71.0313  -29.9436 H         1 O5V         0.0500
     38 H5          2.6637   72.7487  -30.0586 H         1 O5V         0.0500
     39 H6         -1.6792   74.7339  -29.6048 H         1 O5V         0.0546
     40 H7         -1.6639   74.0604  -31.2700 H         1 O5V         0.0546
     41 H8         -0.4956   76.6318  -30.4395 H         1 O5V         0.0596
     42 H9          1.6852   74.8171  -31.3452 H         1 O5V         0.0546
     43 H10         1.4792   75.4476  -29.6758 H         1 O5V         0.0546
     44 H11         0.7511   75.4405  -32.7774 H         1 O5V         0.1856
     45 H12        -0.8520   75.8589  -35.1710 H         1 O5V         0.0864
     46 H13         0.6189   76.7793  -34.7063 H         1 O5V         0.0864
     47 H14        -2.5035   75.7367  -34.9251 H         1 O5V         0.0562
     48 H15        -4.7792   75.4199  -35.8284 H         1 O5V         0.0651
     49 H16        -4.6025   79.3236  -37.5656 H         1 O5V         0.0669
     50 H17        -1.5836   82.7811  -36.5681 H         1 O5V         0.0680
     51 H18        -0.3198   82.1268  -35.4720 H         1 O5V         0.0680
     52 H19        -2.1734   84.0155  -34.2984 H         1 O5V         0.0568
     53 H20        -2.0899   79.9111  -33.8303 H         1 O5V         0.0643
     54 H21        -3.6899   80.4340  -34.4576 H         1 O5V         0.0643
     55 H22        -3.6665   80.2015  -31.9483 H         1 O5V         0.0587
     56 H23        -4.4602   80.5533  -29.6468 H         1 O5V         0.0607
     57 H24        -4.2285   82.7564  -28.5869 H         1 O5V         0.0584
     58 H25        -3.2165   84.6193  -29.8373 H         1 O5V         0.0607
     59 H26        -2.4299   84.2707  -32.1413 H         1 O5V         0.0587
@<TRIPOS>BOND
     1    1    2 1  
     2    2    3 1  
     3    3    4 2  
     4    3    5 am 
     5    5    6 1  
     6    5    8 1  
     7    6    7 1  
     8    7    8 1  
     9    7    9 1  
    10    9   10 am 
    11   10   11 2  
    12   10   12 1  
    13   12   13 1  
    14   13   14 1  
    15   14   15 ar 
    16   14   20 ar 
    17   15   16 ar 
    18   16   17 ar 
    19   17   18 1  
    20   17   19 ar 
    21   19   20 ar 
    22   20   21 1  
    23   21   22 2  
    24   21   23 am 
    25   23   24 1  
    26   23   27 1  
    27   24   25 1  
    28   25   26 2  
    29   26   27 1  
    30   26   28 1  
    31   28   29 ar 
    32   28   33 ar 
    33   29   30 ar 
    34   30   31 ar 
    35   31   32 ar 
    36   32   33 ar 
    37    1   34 1  
    38    1   35 1  
    39    1   36 1  
    40    2   37 1  
    41    2   38 1  
    42    6   39 1  
    43    6   40 1  
    44    7   41 1  
    45    8   42 1  
    46    8   43 1  
    47    9   44 1  
    48   12   45 1  
    49   12   46 1  
    50   15   47 1  
    51   16   48 1  
    52   19   49 1  
    53   24   50 1  
    54   24   51 1  
    55   25   52 1  
    56   27   53 1  
    57   27   54 1  
    58   29   55 1  
    59   30   56 1  
    60   31   57 1  
    61   32   58 1  
    62   33   59 1  
@<TRIPOS>SUBSTRUCTURE
     1 O5V         1

