### 
### Created by X-TOOL on Mon Aug  2 16:11:38 2021
### 

@<TRIPOS>MOLECULE
6p8y_ligand
   65    69     1     0     0
SMALL
GAST_HUCK


@<TRIPOS>ATOM
      1 C01        -3.1410  -10.1930  -10.7290 C.3       1 O5Y        -0.0482
      2 C02        -3.9660  -10.7170   -9.5550 C.3       1 O5Y         0.0346
      3 C03        -3.9930   -9.7550   -8.3520 C.2       1 O5Y         0.1783
      4 O04        -3.0270   -9.5630   -7.6890 O.2       1 O5Y        -0.3969
      5 N05        -5.2240   -9.0670   -8.0070 N.am      1 O5Y        -0.2687
      6 C06        -5.6190   -8.0950   -6.9480 C.3       1 O5Y         0.0588
      7 C07        -6.9440   -7.9340   -7.5980 C.3       1 O5Y         0.0825
      8 C08        -6.6120   -9.0230   -8.5540 C.3       1 O5Y         0.0588
      9 N09        -8.0510   -8.3320   -6.7280 N.am      1 O5Y        -0.2777
     10 C10        -8.2390   -7.7740   -5.3830 C.2       1 O5Y         0.2067
     11 O11        -7.4950   -6.9660   -4.9350 O.2       1 O5Y        -0.3940
     12 C12        -9.4390   -8.2720   -4.5670 C.3       1 O5Y         0.1439
     13 N13        -9.6120   -7.4840   -3.3500 N.pl3     1 O5Y        -0.2362
     14 C14       -10.4120   -6.4340   -3.2550 C.2       1 O5Y         0.0552
     15 C15       -10.3300   -5.9220   -1.9580 C.2       1 O5Y         0.0521
     16 C16       -11.1170   -4.6980   -1.4140 C.2       1 O5Y         0.1832
     17 O17       -11.3230   -4.6180   -0.2470 O.2       1 O5Y        -0.4021
     18 N18       -11.6300   -3.6590   -2.3090 N.am      1 O5Y        -0.2666
     19 C19       -11.4020   -3.7230   -3.7730 C.3       1 O5Y         0.0415
     20 C20       -11.6370   -2.4550   -4.5700 C.3       1 O5Y        -0.0032
     21 C21       -12.9120   -1.7480   -4.1410 C.ar      1 O5Y        -0.0085
     22 C22       -13.7050   -1.0640   -5.1140 C.ar      1 O5Y         0.0860
     23 O23       -13.2880   -1.0750   -6.4610 O.3       1 O5Y        -0.3269
     24 C24       -13.8190   -0.0980   -7.3170 C.3       1 O5Y         0.0575
     25 C25       -14.8710   -0.4180   -4.6970 C.ar      1 O5Y        -0.0464
     26 C26       -15.2530   -0.4320   -3.3520 C.ar      1 O5Y        -0.0839
     27 C27       -14.4730   -1.1010   -2.4060 C.ar      1 O5Y        -0.0759
     28 C28       -13.2800   -1.7660   -2.8330 C.ar      1 O5Y        -0.0274
     29 C29       -12.4020   -2.5040   -1.7750 C.3       1 O5Y         0.0614
     30 C30        -9.4160   -6.7650   -1.2550 C.ar      1 O5Y        -0.0048
     31 C31        -8.9090   -6.7900    0.0670 C.ar      1 O5Y        -0.0628
     32 C32        -7.9890   -7.7770    0.4500 C.ar      1 O5Y        -0.0038
     33 BR33       -7.3040   -7.8070    2.2650 Br        1 O5Y        -0.0602
     34 C34        -7.5590   -8.7450   -0.4700 C.ar      1 O5Y        -0.0666
     35 C35        -8.0530   -8.7230   -1.7720 C.ar      1 O5Y        -0.0394
     36 C36        -8.9900   -7.7200   -2.1620 C.ar      1 O5Y         0.0765
     37 H1         -3.1643  -10.9254  -11.5494 H         1 O5Y         0.0254
     38 H2         -2.1011  -10.0374  -10.4059 H         1 O5Y         0.0254
     39 H3         -3.5635   -9.2389  -11.0772 H         1 O5Y         0.0254
     40 H4         -3.5366  -11.6749   -9.2264 H         1 O5Y         0.0500
     41 H5         -4.9990  -10.8765   -9.8977 H         1 O5Y         0.0500
     42 H6         -5.0122   -7.1777   -6.9302 H         1 O5Y         0.0546
     43 H7         -5.6634   -8.5250   -5.9365 H         1 O5Y         0.0546
     44 H8         -7.1270   -6.9467   -8.0470 H         1 O5Y         0.0596
     45 H9         -7.1865   -9.9483   -8.4000 H         1 O5Y         0.0546
     46 H10        -6.6702   -8.7270   -9.6118 H         1 O5Y         0.0546
     47 H11        -8.7050   -9.0105   -7.0625 H         1 O5Y         0.1856
     48 H12        -9.2748   -9.3245   -4.2928 H         1 O5Y         0.0855
     49 H13       -10.3487   -8.1903   -5.1799 H         1 O5Y         0.0855
     50 H14       -11.0322   -6.0348   -4.0562 H         1 O5Y         0.1069
     51 H15       -12.0712   -4.4964   -4.1780 H         1 O5Y         0.0540
     52 H16       -10.3558   -4.0236   -3.9315 H         1 O5Y         0.0540
     53 H17       -11.7147   -2.7137   -5.6363 H         1 O5Y         0.0407
     54 H18       -10.7850   -1.7760   -4.4185 H         1 O5Y         0.0407
     55 H19       -13.4049   -0.2315   -8.3273 H         1 O5Y         0.0574
     56 H20       -13.5545    0.9015   -6.9415 H         1 O5Y         0.0574
     57 H21       -14.9138   -0.1982   -7.3533 H         1 O5Y         0.0574
     58 H22       -15.4864    0.0998   -5.4238 H         1 O5Y         0.0467
     59 H23       -16.1579    0.0783   -3.0423 H         1 O5Y         0.0515
     60 H24       -14.7673   -1.1163   -1.3628 H         1 O5Y         0.0448
     61 H25       -11.6891   -1.7793   -1.3549 H         1 O5Y         0.0666
     62 H26       -13.0633   -2.8726   -0.9770 H         1 O5Y         0.0666
     63 H27        -9.2326   -6.0447    0.7845 H         1 O5Y         0.0572
     64 H28        -6.8469   -9.5051   -0.1694 H         1 O5Y         0.0554
     65 H29        -7.7258   -9.4675   -2.4888 H         1 O5Y         0.0553
@<TRIPOS>BOND
     1    1    2 1  
     2    2    3 1  
     3    3    4 2  
     4    3    5 am 
     5    5    6 1  
     6    5    8 1  
     7    6    7 1  
     8    7    8 1  
     9    7    9 1  
    10    9   10 am 
    11   10   11 2  
    12   10   12 1  
    13   12   13 1  
    14   13   14 1  
    15   13   36 1  
    16   14   15 2  
    17   15   16 1  
    18   15   30 1  
    19   16   17 2  
    20   16   18 am 
    21   18   19 1  
    22   18   29 1  
    23   19   20 1  
    24   20   21 1  
    25   21   22 ar 
    26   21   28 ar 
    27   22   23 1  
    28   22   25 ar 
    29   23   24 1  
    30   25   26 ar 
    31   26   27 ar 
    32   27   28 ar 
    33   28   29 1  
    34   30   31 ar 
    35   30   36 ar 
    36   31   32 ar 
    37   32   33 1  
    38   32   34 ar 
    39   34   35 ar 
    40   35   36 ar 
    41    1   37 1  
    42    1   38 1  
    43    1   39 1  
    44    2   40 1  
    45    2   41 1  
    46    6   42 1  
    47    6   43 1  
    48    7   44 1  
    49    8   45 1  
    50    8   46 1  
    51    9   47 1  
    52   12   48 1  
    53   12   49 1  
    54   14   50 1  
    55   19   51 1  
    56   19   52 1  
    57   20   53 1  
    58   20   54 1  
    59   24   55 1  
    60   24   56 1  
    61   24   57 1  
    62   25   58 1  
    63   26   59 1  
    64   27   60 1  
    65   29   61 1  
    66   29   62 1  
    67   31   63 1  
    68   34   64 1  
    69   35   65 1  
@<TRIPOS>SUBSTRUCTURE
     1 O5Y         1

