### 
### Created by X-TOOL on Mon Aug  2 16:11:39 2021
### 

@<TRIPOS>MOLECULE
6p8z_ligand
   75    80     1     0     0
SMALL
GAST_HUCK


@<TRIPOS>ATOM
      1 C01        -1.7140  -14.4670   25.0340 C.3       1 O5S        -0.0482
      2 C02        -0.3670  -15.1090   25.4040 C.3       1 O5S         0.0346
      3 C03         0.5350  -14.1670   26.2340 C.2       1 O5S         0.1783
      4 O04         1.2240  -13.3580   25.7150 O.2       1 O5S        -0.3969
      5 N05         0.5310  -14.2820   27.6880 N.am      1 O5S        -0.2687
      6 C06        -0.2030  -15.1540   28.6540 C.3       1 O5S         0.0588
      7 C07         0.4280  -14.4080   29.7760 C.3       1 O5S         0.0825
      8 C08         1.2290  -13.5890   28.8210 C.3       1 O5S         0.0588
      9 N09         1.2260  -15.3740   30.5430 N.am      1 O5S        -0.2778
     10 C10         1.7520  -15.0240   31.8620 C.2       1 O5S         0.2061
     11 O11         1.5450  -13.9370   32.3090 O.2       1 O5S        -0.3941
     12 C12         2.5820  -16.0820   32.6490 C.3       1 O5S         0.1428
     13 N13         3.0470  -15.4150   33.8750 N.pl3     1 O5S        -0.2331
     14 C14         2.4130  -15.4750   35.0630 C.2       1 O5S         0.0771
     15 C15         1.1060  -16.2430   35.3990 C.3       1 O5S         0.0257
     16 C16        -0.1800  -15.5850   34.8720 C.3       1 O5S        -0.0321
     17 C17        -0.1220  -16.0950   36.3110 C.3       1 O5S        -0.0321
     18 C18         3.1530  -14.7030   35.9670 C.2       1 O5S         0.0468
     19 C19         2.8570  -14.4490   37.4870 C.2       1 O5S         0.1729
     20 O20         3.0450  -15.3160   38.2780 O.2       1 O5S        -0.4096
     21 N21         2.3950  -13.1070   37.9160 N.am      1 O5S        -0.2689
     22 C22         2.0820  -12.8090   39.3140 C.3       1 O5S         0.0411
     23 C23         0.5340  -12.7120   39.4310 C.3       1 O5S        -0.0033
     24 C24        -0.0710  -11.9110   38.2290 C.ar      1 O5S        -0.0085
     25 C25        -1.4420  -11.4860   38.3390 C.ar      1 O5S         0.0860
     26 O26        -2.1760  -11.8290   39.5080 O.3       1 O5S        -0.3269
     27 C27        -3.2160  -10.9430   39.9070 C.3       1 O5S         0.0575
     28 C28        -2.0260  -10.7630   37.2860 C.ar      1 O5S        -0.0464
     29 C29        -1.2770  -10.4380   36.1410 C.ar      1 O5S        -0.0839
     30 C30         0.0620  -10.8440   36.0370 C.ar      1 O5S        -0.0759
     31 C31         0.6670  -11.5900   37.1060 C.ar      1 O5S        -0.0275
     32 C32         2.1340  -12.0300   36.9900 C.3       1 O5S         0.0610
     33 C33         4.2780  -14.1570   35.2490 C.ar      1 O5S        -0.0230
     34 C34         5.3500  -13.3110   35.6690 C.ar      1 O5S        -0.0713
     35 C35         6.3150  -12.9500   34.7110 C.ar      1 O5S         0.0125
     36 CL36        7.6440  -11.8800   35.1910 Cl        1 O5S        -0.0843
     37 C37         6.2370  -13.4040   33.3800 C.ar      1 O5S        -0.0640
     38 C38         5.1830  -14.2380   32.9790 C.ar      1 O5S        -0.0276
     39 C39         5.1400  -14.7150   31.5120 C.3       1 O5S        -0.0340
     40 C40         4.1860  -14.6190   33.9580 C.ar      1 O5S         0.0728
     41 H1         -2.3110  -15.1801   24.4466 H         1 O5S         0.0254
     42 H2         -1.5364  -13.5595   24.4383 H         1 O5S         0.0254
     43 H3         -2.2585  -14.2021   25.9523 H         1 O5S         0.0254
     44 H4          0.1618  -15.3762   24.4772 H         1 O5S         0.0500
     45 H5         -0.5603  -16.0188   25.9913 H         1 O5S         0.0500
     46 H6          0.0752  -16.2171   28.6050 H         1 O5S         0.0546
     47 H7         -1.2979  -15.0589   28.6071 H         1 O5S         0.0546
     48 H8         -0.2498  -13.8323   30.4235 H         1 O5S         0.0596
     49 H9          1.0365  -12.5075   28.8788 H         1 O5S         0.0546
     50 H10         2.3129  -13.7714   28.8654 H         1 O5S         0.0546
     51 H11         1.4112  -16.2789   30.1598 H         1 O5S         0.1856
     52 H12         3.4408  -16.4158   32.0482 H         1 O5S         0.0848
     53 H13         1.9528  -16.9480   32.9021 H         1 O5S         0.0848
     54 H14         1.3286  -17.2923   35.1551 H         1 O5S         0.0538
     55 H15        -0.7997  -16.1075   34.1284 H         1 O5S         0.0299
     56 H16        -0.2020  -14.5034   34.6728 H         1 O5S         0.0299
     57 H17        -0.1026  -15.3801   37.1468 H         1 O5S         0.0299
     58 H18        -0.7003  -16.9842   36.6024 H         1 O5S         0.0299
     59 H19         2.5422  -11.8540   39.6075 H         1 O5S         0.0540
     60 H20         2.4589  -13.6126   39.9637 H         1 O5S         0.0540
     61 H21         0.2756  -12.2009   40.3701 H         1 O5S         0.0407
     62 H22         0.1095  -13.7267   39.4369 H         1 O5S         0.0407
     63 H23        -3.6960  -11.3281   40.8188 H         1 O5S         0.0574
     64 H24        -3.9629  -10.8686   39.1029 H         1 O5S         0.0574
     65 H25        -2.7929   -9.9477   40.1078 H         1 O5S         0.0574
     66 H26        -3.0623  -10.4530   37.3564 H         1 O5S         0.0467
     67 H27        -1.7350   -9.8728   35.3373 H         1 O5S         0.0515
     68 H28         0.6383  -10.5958   35.1531 H         1 O5S         0.0448
     69 H29         2.3323  -12.3739   35.9642 H         1 O5S         0.0666
     70 H30         2.7903  -11.1791   37.2248 H         1 O5S         0.0666
     71 H31         5.4176  -12.9589   36.6920 H         1 O5S         0.0454
     72 H32         6.9942  -13.1078   32.6630 H         1 O5S         0.0444
     73 H33         5.9980  -14.2969   30.9652 H         1 O5S         0.0375
     74 H34         4.2051  -14.3745   31.0429 H         1 O5S         0.0375
     75 H35         5.1863  -15.8136   31.4821 H         1 O5S         0.0375
@<TRIPOS>BOND
     1    1    2 1  
     2    2    3 1  
     3    3    4 2  
     4    3    5 am 
     5    5    6 1  
     6    5    8 1  
     7    6    7 1  
     8    7    8 1  
     9    7    9 1  
    10    9   10 am 
    11   10   11 2  
    12   10   12 1  
    13   12   13 1  
    14   13   14 1  
    15   13   40 1  
    16   14   15 1  
    17   14   18 2  
    18   15   16 1  
    19   15   17 1  
    20   16   17 1  
    21   18   19 1  
    22   18   33 1  
    23   19   20 2  
    24   19   21 am 
    25   21   22 1  
    26   21   32 1  
    27   22   23 1  
    28   23   24 1  
    29   24   25 ar 
    30   24   31 ar 
    31   25   26 1  
    32   25   28 ar 
    33   26   27 1  
    34   28   29 ar 
    35   29   30 ar 
    36   30   31 ar 
    37   31   32 1  
    38   33   34 ar 
    39   33   40 ar 
    40   34   35 ar 
    41   35   36 1  
    42   35   37 ar 
    43   37   38 ar 
    44   38   39 1  
    45   38   40 ar 
    46    1   41 1  
    47    1   42 1  
    48    1   43 1  
    49    2   44 1  
    50    2   45 1  
    51    6   46 1  
    52    6   47 1  
    53    7   48 1  
    54    8   49 1  
    55    8   50 1  
    56    9   51 1  
    57   12   52 1  
    58   12   53 1  
    59   15   54 1  
    60   16   55 1  
    61   16   56 1  
    62   17   57 1  
    63   17   58 1  
    64   22   59 1  
    65   22   60 1  
    66   23   61 1  
    67   23   62 1  
    68   27   63 1  
    69   27   64 1  
    70   27   65 1  
    71   28   66 1  
    72   29   67 1  
    73   30   68 1  
    74   32   69 1  
    75   32   70 1  
    76   34   71 1  
    77   37   72 1  
    78   39   73 1  
    79   39   74 1  
    80   39   75 1  
@<TRIPOS>SUBSTRUCTURE
     1 O5S         1

