### 
### Created by X-TOOL on Mon Aug  2 16:11:15 2021
### 

@<TRIPOS>MOLECULE
6pdj_ligand
   56    60     1     0     0
SMALL
GAST_HUCK


@<TRIPOS>ATOM
      1 C13         7.8010   -0.4910   -7.4200 C.ar      1 ODJ        -0.0720
      2 C18        -2.8950    2.3950  -11.7540 C.2       1 ODJ         0.0575
      3 C17        -1.8640    1.6800  -10.9860 C.2       1 ODJ         0.1907
      4 C16        -0.2110    3.3290   -8.3350 C.3       1 ODJ        -0.0380
      5 C15         5.7440   -3.4490   -3.5950 C.3       1 ODJ         0.0584
      6 C19        -4.2450    2.0850  -11.7190 C.2       1 ODJ         0.1120
      7 C20        -2.7840    3.4510  -12.6750 C.2       1 ODJ        -0.0038
      8 C21        -5.0660    1.1280  -11.1010 C.2       1 ODJ        -0.0231
      9 C22        -6.4200    1.0790  -11.3920 C.2       1 ODJ        -0.0224
     10 C23        -6.9700    2.0060  -12.2650 C.2       1 ODJ         0.1299
     11 C24        -6.1830    2.9610  -12.8780 C.2       1 ODJ         0.1235
     12 C11         7.8360   -1.9790   -5.5200 C.ar      1 ODJ        -0.0339
     13 C12         8.5000   -1.2960   -6.5300 C.ar      1 ODJ        -0.0700
     14 N1         -0.6460    2.2440  -10.9860 N.am      1 ODJ        -0.2523
     15 C1          0.4530    1.7580  -10.2430 C.ar      1 ODJ         0.0529
     16 C2          1.3000    0.7850  -10.7830 C.ar      1 ODJ        -0.0595
     17 C3          2.3020    0.2350  -10.0000 C.ar      1 ODJ        -0.0603
     18 C4          2.4510    0.6300   -8.6740 C.ar      1 ODJ         0.0450
     19 C5          1.6350    1.6360   -8.1560 C.ar      1 ODJ        -0.0516
     20 C6          0.6280    2.2150   -8.9200 C.ar      1 ODJ        -0.0359
     21 N2          3.3650   -0.0310   -7.8230 N.am      1 ODJ        -0.2428
     22 C7          3.1270   -0.5920   -6.6020 C.2       1 ODJ         0.2379
     23 O1          2.0160   -0.6590   -6.0670 O.2       1 ODJ        -0.3764
     24 C8          4.3480   -1.1390   -5.9040 C.2       1 ODJ         0.1405
     25 N3          4.2570   -1.9880   -4.8810 N.2       1 ODJ        -0.1733
     26 N4          5.5340   -2.4240   -4.6110 N.pl3     1 ODJ        -0.1940
     27 C9          6.4530   -1.8470   -5.4350 C.ar      1 ODJ         0.0953
     28 C10         5.7340   -1.0220   -6.3100 C.ar      1 ODJ         0.0280
     29 C14         6.4240   -0.3420   -7.3120 C.ar      1 ODJ        -0.0627
     30 O2         -2.1250    0.6310  -10.4020 O.2       1 ODJ        -0.4016
     31 N5         -4.8630    2.9940  -12.6250 N.pl3     1 ODJ        -0.1621
     32 N6         -3.9810    3.8310  -13.2150 N.2       1 ODJ        -0.2155
     33 O3         -8.3260    1.9830  -12.4700 O.3       1 ODJ        -0.3234
     34 C25        -8.8940    2.9480  -13.3560 C.3       1 ODJ         0.0567
     35 H1          8.3359    0.0269   -8.2079 H         1 ODJ         0.0536
     36 H2          0.0997    3.5153   -7.2964 H         1 ODJ         0.0361
     37 H3         -1.2716    3.0379   -8.3538 H         1 ODJ         0.0361
     38 H4         -0.0713    4.2441   -8.9292 H         1 ODJ         0.0361
     39 H5          6.8183   -3.6713   -3.5151 H         1 ODJ         0.0586
     40 H6          5.2006   -4.3626   -3.8780 H         1 ODJ         0.0586
     41 H7          5.3716   -3.0862   -2.6256 H         1 ODJ         0.0586
     42 H8         -1.8362    3.9209  -12.9334 H         1 ODJ         0.0662
     43 H9         -4.6374    0.4222  -10.3910 H         1 ODJ         0.0603
     44 H10        -7.0497    0.3158  -10.9371 H         1 ODJ         0.0642
     45 H11        -6.6285    3.6823  -13.5615 H         1 ODJ         0.1092
     46 H12         8.3801   -2.5986   -4.8164 H         1 ODJ         0.0563
     47 H13         9.5756   -1.3921   -6.6249 H         1 ODJ         0.0580
     48 H14        -0.5077    3.0599  -11.5475 H         1 ODJ         0.2168
     49 H15         1.1731    0.4624  -11.8101 H         1 ODJ         0.0448
     50 H16         2.9721   -0.5054  -10.4217 H         1 ODJ         0.0413
     51 H17         1.7892    1.9730   -7.1373 H         1 ODJ         0.0407
     52 H18         4.3051   -0.0959   -8.1578 H         1 ODJ         0.2205
     53 H19         5.8893    0.2995   -8.0031 H         1 ODJ         0.0589
     54 H20        -9.9823    2.7980  -13.4126 H         1 ODJ         0.0571
     55 H21        -8.4550    2.8294  -14.3576 H         1 ODJ         0.0571
     56 H22        -8.6824    3.9600  -12.9804 H         1 ODJ         0.0571
@<TRIPOS>BOND
     1   13    1 ar 
     2    1   29 ar 
     3    3    2 1  
     4    2    6 2  
     5    2    7 1  
     6   14    3 am 
     7    3   30 2  
     8   20    4 1  
     9   26    5 1  
    10    6    8 1  
    11    6   31 1  
    12    7   32 2  
    13    8    9 2  
    14    9   10 1  
    15   11   10 2  
    16   10   33 1  
    17   31   11 1  
    18   12   13 ar 
    19   27   12 ar 
    20   15   14 1  
    21   16   15 ar 
    22   20   15 ar 
    23   17   16 ar 
    24   18   17 ar 
    25   18   19 ar 
    26   21   18 1  
    27   19   20 ar 
    28   22   21 am 
    29   22   23 2  
    30   24   22 1  
    31   25   24 2  
    32   24   28 1  
    33   26   25 1  
    34   26   27 1  
    35   27   28 ar 
    36   28   29 ar 
    37   31   32 1  
    38   33   34 1  
    39    1   35 1  
    40    4   36 1  
    41    4   37 1  
    42    4   38 1  
    43    5   39 1  
    44    5   40 1  
    45    5   41 1  
    46    7   42 1  
    47    8   43 1  
    48    9   44 1  
    49   11   45 1  
    50   12   46 1  
    51   13   47 1  
    52   14   48 1  
    53   16   49 1  
    54   17   50 1  
    55   19   51 1  
    56   21   52 1  
    57   29   53 1  
    58   34   54 1  
    59   34   55 1  
    60   34   56 1  
@<TRIPOS>SUBSTRUCTURE
     1 ODJ         1

