### 
### Created by X-TOOL on Mon Aug  2 16:16:02 2021
### 

@<TRIPOS>MOLECULE
6peb_ligand
   51    55     1     0     0
SMALL
GAST_HUCK


@<TRIPOS>ATOM
      1 C1         14.4720   -4.6180   16.1320 C.ar      1 OE4        -0.0404
      2 C2         15.1790   -5.8200   16.2680 C.ar      1 OE4         0.0042
      3 C11         8.5710   -6.1880   13.7100 C.2       1 OE4         0.2882
      4 C14         7.2620   -4.9650   11.9170 C.ar      1 OE4         0.0599
      5 C15         7.2130   -3.6770   11.3320 C.ar      1 OE4        -0.0476
      6 C16         6.6400   -3.4920   10.0550 C.ar      1 OE4        -0.0712
      7 C17         6.1260   -4.5890    9.3340 C.ar      1 OE4        -0.0313
      8 C18         6.2470   -5.8870    9.8610 C.ar      1 OE4        -0.0712
      9 C19         6.8250   -6.0680   11.1360 C.ar      1 OE4        -0.0476
     10 C20         5.5660   -4.3640    7.9320 C.3       1 OE4         0.0834
     11 C22         3.4880   -2.9840    7.9460 C.2       1 OE4         0.2416
     12 C23         2.0140   -3.1880    7.7410 C.ar      1 OE4         0.0734
     13 C24         1.8460   -4.5590    7.5100 C.ar      1 OE4         0.0734
     14 C25         3.2250   -5.1660    7.5990 C.2       1 OE4         0.2416
     15 C26         0.9330   -2.2980    7.7740 C.ar      1 OE4        -0.0371
     16 C27        -0.3440   -2.8400    7.5170 C.ar      1 OE4        -0.0523
     17 C28        -0.5120   -4.2190    7.2560 C.ar      1 OE4        -0.0523
     18 C29         0.5810   -5.1110    7.2540 C.ar      1 OE4        -0.0371
     19 N3         14.5040   -6.9980   16.2890 N.ar      1 OE4        -0.3044
     20 C4         13.1360   -7.0380   16.2040 C.ar      1 OE4         0.0129
     21 C5         12.3680   -5.8630   16.0540 C.ar      1 OE4        -0.0082
     22 C6         13.0740   -4.6380   16.0450 C.ar      1 OE4        -0.0401
     23 C7         10.8190   -5.9070   16.0620 C.3       1 OE4         0.0392
     24 C8          9.9170   -4.8310   15.3750 C.3       1 OE4         0.0502
     25 N9          9.4120   -6.0570   14.7940 N.am      1 OE4        -0.2497
     26 C10        10.0570   -7.1340   15.4980 C.3       1 OE4         0.0502
     27 N12         7.9930   -5.0910   13.1370 N.am      1 OE4        -0.2233
     28 O13         8.3340   -7.3260   13.3070 O.2       1 OE4        -0.3910
     29 N21         4.1230   -4.1860    7.9000 N.am      1 OE4        -0.1749
     30 O30         3.4270   -6.3620    7.4340 O.2       1 OE4        -0.3668
     31 O31         3.9540   -1.8770    8.1850 O.2       1 OE4        -0.3668
     32 H1         15.0054   -3.6751   16.0942 H         1 OE4         0.0693
     33 H2         16.2594   -5.8096   16.3560 H         1 OE4         0.0767
     34 H3          7.6183   -2.8266   11.8683 H         1 OE4         0.0485
     35 H4          6.5949   -2.4979    9.6252 H         1 OE4         0.0520
     36 H5          5.8991   -6.7420    9.2926 H         1 OE4         0.0520
     37 H6          6.9380   -7.0722   11.5283 H         1 OE4         0.0485
     38 H7          5.8221   -5.2356    7.3118 H         1 OE4         0.0706
     39 H8          6.0363   -3.4633    7.5107 H         1 OE4         0.0706
     40 H9          1.0708   -1.2440    7.9867 H         1 OE4         0.0682
     41 H10        -1.2103   -2.1884    7.5197 H         1 OE4         0.0662
     42 H11        -1.5058   -4.6008    7.0522 H         1 OE4         0.0662
     43 H12         0.4504   -6.1702    7.0642 H         1 OE4         0.0682
     44 H13        12.6315   -7.9962   16.2532 H         1 OE4         0.0765
     45 H14        12.5278   -3.7047   15.9700 H         1 OE4         0.0678
     46 H15        10.5971   -5.8569   17.1382 H         1 OE4         0.0516
     47 H16        10.4187   -4.1312   14.6905 H         1 OE4         0.0547
     48 H17         9.2285   -4.2749   16.0282 H         1 OE4         0.0547
     49 H18         9.4356   -7.6959   16.2108 H         1 OE4         0.0547
     50 H19        10.6427   -7.8376   14.8882 H         1 OE4         0.0547
     51 H20         8.0986   -4.2415   13.6539 H         1 OE4         0.2232
@<TRIPOS>BOND
     1    1    2 ar 
     2   22    1 ar 
     3   19    2 ar 
     4   25    3 am 
     5    3   27 am 
     6    3   28 2  
     7    4    5 ar 
     8    4    9 ar 
     9   27    4 1  
    10    5    6 ar 
    11    6    7 ar 
    12    8    7 ar 
    13    7   10 1  
    14    9    8 ar 
    15   10   29 1  
    16   11   12 1  
    17   29   11 am 
    18   11   31 2  
    19   13   12 ar 
    20   12   15 ar 
    21   14   13 1  
    22   13   18 ar 
    23   29   14 am 
    24   14   30 2  
    25   15   16 ar 
    26   17   16 ar 
    27   18   17 ar 
    28   20   19 ar 
    29   21   20 ar 
    30   21   22 ar 
    31   23   21 1  
    32   24   23 1  
    33   23   26 1  
    34   24   25 1  
    35   25   26 1  
    36    1   32 1  
    37    2   33 1  
    38    5   34 1  
    39    6   35 1  
    40    8   36 1  
    41    9   37 1  
    42   10   38 1  
    43   10   39 1  
    44   15   40 1  
    45   16   41 1  
    46   17   42 1  
    47   18   43 1  
    48   20   44 1  
    49   22   45 1  
    50   23   46 1  
    51   24   47 1  
    52   24   48 1  
    53   26   49 1  
    54   26   50 1  
    55   27   51 1  
@<TRIPOS>SUBSTRUCTURE
     1 OE4         1

