### 
### Created by X-TOOL on Mon Aug  2 16:16:02 2021
### 

@<TRIPOS>MOLECULE
6peg_ligand
   70    74     1     0     0
SMALL
GAST_HUCK


@<TRIPOS>ATOM
      1 CAA        30.5700    1.1780  -47.4110 C.3       1 MOL        -0.0595
      2 CBN        29.9200   -0.0010  -48.1380 C.3       1 MOL        -0.0183
      3 CAB        30.8190   -0.4440  -49.3240 C.3       1 MOL        -0.0595
      4 CBA        28.5970    0.4810  -48.7040 C.3       1 MOL         0.0706
      5 OAD        28.6930    1.0060  -49.9980 O.3       1 MOL        -0.3881
      6 CBJ        27.2380    0.3650  -48.0000 C.2       1 MOL        -0.0017
      7 CBL        26.9330   -0.4810  -46.9820 C.2       1 MOL         0.0953
      8 CAR        27.5820   -1.4390  -46.1840 C.2       1 MOL        -0.0344
      9 CAM        26.8470   -2.1110  -45.1830 C.2       1 MOL        -0.0662
     10 CAN        25.4850   -1.8230  -44.9880 C.2       1 MOL        -0.0297
     11 CAT        24.8450   -0.8910  -45.7940 C.2       1 MOL         0.0876
     12 NBO        25.5440   -0.2620  -46.7520 N.pl3     1 MOL        -0.1728
     13 NAZ        25.0920    0.6930  -47.6470 N.2       1 MOL        -0.2271
     14 CBG        26.1400    1.0480  -48.4060 C.2       1 MOL         0.0088
     15 CAW        26.1040    2.0670  -49.5270 C.3       1 MOL         0.0094
     16 CBB        25.0290    3.0770  -49.2810 C.ar      1 MOL        -0.0455
     17 CAU        23.8090    2.8240  -49.8570 C.ar      1 MOL        -0.0402
     18 CAO        25.2820    4.2050  -48.5150 C.ar      1 MOL        -0.0720
     19 CAL        24.2820    5.1420  -48.3480 C.ar      1 MOL        -0.0799
     20 CAP        23.0310    4.9180  -48.9460 C.ar      1 MOL        -0.0494
     21 CBC        22.7910    3.7500  -49.6840 C.ar      1 MOL         0.0534
     22 NAX        21.5200    3.4430  -50.3160 N.pl3     1 MOL        -0.2335
     23 NAY        20.3670    3.9940  -49.7800 N.pl3     1 MOL        -0.2354
     24 CBE        19.0870    3.6260  -50.2790 C.ar      1 MOL         0.0866
     25 CAQ        18.0150    4.4670  -50.0040 C.ar      1 MOL        -0.0518
     26 CAS        16.7400    4.2160  -50.4380 C.ar      1 MOL        -0.0766
     27 CBK        16.4990    3.0530  -51.2120 C.ar      1 MOL        -0.0238
     28 CBI        15.2300    2.7640  -51.6780 C.ar      1 MOL         0.0336
     29 SBQ        13.8760    3.8700  -51.3390 S.o2      1 MOL        -0.1729
     30 OAK        14.2920    5.0790  -52.0910 O.co2     1 MOL        -0.4823
     31 OAH        13.7190    4.0360  -49.8320 O.co2     1 MOL        -0.4823
     32 OAG        12.7320    3.2130  -52.0010 O.co2     1 MOL        -0.4823
     33 CAV        14.9800    1.6270  -52.4060 C.ar      1 MOL        -0.0417
     34 CBH        15.9890    0.7380  -52.7150 C.ar      1 MOL         0.0612
     35 SBP        15.5470   -0.7150  -53.6720 S.o2      1 MOL        -0.1718
     36 OAJ        14.0790   -0.7420  -53.7800 O.co2     1 MOL        -0.4830
     37 OAF        16.3290   -0.4510  -54.9490 O.co2     1 MOL        -0.4830
     38 OAE        16.0800   -1.8830  -52.8280 O.co2     1 MOL        -0.4830
     39 CBD        17.3020    0.9590  -52.2940 C.ar      1 MOL         0.0647
     40 NAC        18.3920    0.0480  -52.6260 N.pl3     1 MOL        -0.3332
     41 CBM        17.5670    2.1430  -51.5190 C.ar      1 MOL         0.0331
     42 CBF        18.8540    2.4720  -51.0640 C.ar      1 MOL         0.1164
     43 OAI        19.8770    1.5790  -51.3600 O.3       1 MOL        -0.3377
     44 H1         31.5344    0.8610  -46.9875 H         1 MOL         0.0234
     45 H2         29.9084    1.5193  -46.6012 H         1 MOL         0.0234
     46 H3         30.7345    2.0014  -48.1216 H         1 MOL         0.0234
     47 H4         29.7635   -0.8399  -47.4439 H         1 MOL         0.0331
     48 H5         30.3486   -1.2915  -49.8440 H         1 MOL         0.0234
     49 H6         31.8047   -0.7491  -48.9429 H         1 MOL         0.0234
     50 H7         30.9405    0.3947  -50.0253 H         1 MOL         0.0234
     51 H8         28.7406    1.4726  -48.2501 H         1 MOL         0.0651
     52 H9         27.8335    1.2870  -50.2891 H         1 MOL         0.2114
     53 H10        28.6375   -1.6600  -46.3357 H         1 MOL         0.0579
     54 H11        27.3378   -2.8563  -44.5588 H         1 MOL         0.0590
     55 H12        24.9298   -2.3327  -44.2019 H         1 MOL         0.0541
     56 H13        23.7878   -0.6727  -45.6506 H         1 MOL         0.1179
     57 H14        25.9060    1.5519  -50.4785 H         1 MOL         0.0558
     58 H15        27.0760    2.5789  -49.5825 H         1 MOL         0.0558
     59 H16        23.6449    1.9211  -50.4339 H         1 MOL         0.0454
     60 H17        26.2522    4.3491  -48.0534 H         1 MOL         0.0450
     61 H18        24.4597    6.0377  -47.7638 H         1 MOL         0.0566
     62 H19        22.2436    5.6549  -48.8360 H         1 MOL         0.0461
     63 H20        21.4766    2.8304  -51.1429 H         1 MOL         0.2046
     64 H21        20.4377    4.6771  -49.0123 H         1 MOL         0.1995
     65 H22        18.1960    5.3619  -49.4197 H         1 MOL         0.0521
     66 H23        15.9303    4.8942  -50.1940 H         1 MOL         0.0459
     67 H24        13.9705    1.4238  -52.7445 H         1 MOL         0.0571
     68 H25        18.2041   -0.7995  -53.1804 H         1 MOL         0.1749
     69 H26        19.3495    0.2523  -52.3060 H         1 MOL         0.1749
     70 H27        20.6946    1.9063  -51.0036 H         1 MOL         0.2453
@<TRIPOS>BOND
     1    1    2 1  
     2    2    3 1  
     3    2    4 1  
     4    4    5 1  
     5    4    6 1  
     6    6    7 2  
     7    6   14 1  
     8    7    8 1  
     9    7   12 1  
    10    8    9 2  
    11    9   10 1  
    12   10   11 2  
    13   11   12 1  
    14   12   13 1  
    15   13   14 2  
    16   14   15 1  
    17   15   16 1  
    18   16   17 ar 
    19   16   18 ar 
    20   17   21 ar 
    21   18   19 ar 
    22   19   20 ar 
    23   20   21 ar 
    24   21   22 1  
    25   22   23 1  
    26   23   24 1  
    27   24   25 ar 
    28   24   42 ar 
    29   25   26 ar 
    30   26   27 ar 
    31   27   28 ar 
    32   27   41 ar 
    33   28   29 1  
    34   28   33 ar 
    35   29   30 ar 
    36   29   31 ar 
    37   29   32 ar 
    38   33   34 ar 
    39   34   35 1  
    40   34   39 ar 
    41   35   36 ar 
    42   35   37 ar 
    43   35   38 ar 
    44   39   40 1  
    45   39   41 ar 
    46   41   42 ar 
    47   42   43 1  
    48    1   44 1  
    49    1   45 1  
    50    1   46 1  
    51    2   47 1  
    52    3   48 1  
    53    3   49 1  
    54    3   50 1  
    55    4   51 1  
    56    5   52 1  
    57    8   53 1  
    58    9   54 1  
    59   10   55 1  
    60   11   56 1  
    61   15   57 1  
    62   15   58 1  
    63   17   59 1  
    64   18   60 1  
    65   19   61 1  
    66   20   62 1  
    67   22   63 1  
    68   23   64 1  
    69   25   65 1  
    70   26   66 1  
    71   33   67 1  
    72   40   68 1  
    73   40   69 1  
    74   43   70 1  
@<TRIPOS>SUBSTRUCTURE
     1 MOL         1

