### 
### Created by X-TOOL on Mon Aug  2 16:12:06 2021
### 

@<TRIPOS>MOLECULE
6pf3_ligand
   47    50     1     0     0
SMALL
GAST_HUCK


@<TRIPOS>ATOM
      1 N1         -3.4010   10.2510   22.5170 N.pl3     1 OE7        -0.2071
      2 C1         -3.0270    9.3190   23.4730 C.2       1 OE7         0.2692
      3 O1         -6.1580    8.3920   24.9040 O.2       1 OE7        -0.3912
      4 N2         -5.6420    9.8460   23.2650 N.am      1 OE7        -0.2584
      5 C2         -3.8670    8.6440   24.3190 C.2       1 OE7         0.1642
      6 O2         -7.5070    1.7780   25.0950 O.2       1 OE7        -0.3747
      7 N3         -1.7420    8.9140   23.7380 N.pl3     1 OE7        -0.1662
      8 C3         -5.3130    8.9360   24.2000 C.2       1 OE7         0.2084
      9 O3         -4.4560    1.8500   21.1310 O.co2     1 OE7        -0.5656
     10 N4         -5.2730   11.3620   21.5760 N.pl3     1 OE7        -0.3347
     11 C4         -4.6840   10.4750   22.4530 C.cat     1 OE7         0.1960
     12 O4         -3.5680   -0.2040   20.6920 O.co2     1 OE7        -0.5656
     13 C5         -3.0650    7.7780   25.1350 C.2       1 OE7         0.0732
     14 N5         -6.1070    1.5850   23.2890 N.am      1 OE7        -0.2307
     15 C6         -1.7590    7.9760   24.7500 C.2       1 OE7         0.1270
     16 C10        -6.0100    3.9390   26.1340 C.ar      1 OE7        -0.0460
     17 C11        -5.7650    3.3650   24.8660 C.ar      1 OE7         0.0510
     18 C12        -4.7830    3.9430   24.0300 C.ar      1 OE7        -0.0460
     19 C13        -4.0550    5.0710   24.4580 C.ar      1 OE7        -0.0500
     20 C14        -6.5520    2.1660   24.4190 C.2       1 OE7         0.2300
     21 C15        -6.6010    0.4480   22.5800 C.ar      1 OE7         0.0814
     22 C16        -7.8400   -0.1540   22.9210 C.ar      1 OE7        -0.0234
     23 C17        -8.3220   -1.2700   22.2200 C.ar      1 OE7         0.0300
     24 C18        -7.5760   -1.8030   21.1590 C.ar      1 OE7        -0.0595
     25 C19        -6.3470   -1.2200   20.8020 C.ar      1 OE7        -0.0606
     26 C20        -5.8420   -0.0940   21.4980 C.ar      1 OE7         0.0305
     27 C21        -4.5160    0.4880   21.0660 C.2       1 OE7         0.0548
     28 C7         -3.5350    6.8440   26.2220 C.3       1 OE7         0.0342
     29 C8         -4.3020    5.6330   25.7270 C.ar      1 OE7        -0.0213
     30 C9         -5.2810    5.0620   26.5640 C.ar      1 OE7        -0.0500
     31 CL1        -9.8300   -1.9790   22.6620 Cl        1 OE7        -0.0723
     32 H1         -2.7211   10.7274   21.9073 H         1 OE7         0.2424
     33 H2         -6.6057   10.0836   23.1436 H         1 OE7         0.1808
     34 H3         -0.8980    9.2565   23.2570 H         1 OE7         0.2655
     35 H4         -4.6906   11.8977   20.9167 H         1 OE7         0.1763
     36 H5         -6.2952   11.4886   21.5805 H         1 OE7         0.1763
     37 H6         -5.3031    2.0183   22.8815 H         1 OE7         0.2270
     38 H7         -0.8875    7.4776   25.1719 H         1 OE7         0.1626
     39 H8         -6.7666    3.5098   26.7808 H         1 OE7         0.0657
     40 H9         -4.5885    3.5157   23.0529 H         1 OE7         0.0657
     41 H10        -3.3035    5.5075   23.8101 H         1 OE7         0.0585
     42 H11        -8.4243    0.2554   23.7372 H         1 OE7         0.0516
     43 H12        -7.9464   -2.6639   20.6143 H         1 OE7         0.0502
     44 H13        -5.7767   -1.6390   19.9809 H         1 OE7         0.0611
     45 H14        -4.1892    7.4101   26.9014 H         1 OE7         0.0657
     46 H15        -2.6525    6.4887   26.7742 H         1 OE7         0.0657
     47 H16        -5.4727    5.4893   27.5416 H         1 OE7         0.0585
@<TRIPOS>BOND
     1    2    1 1  
     2    1   11 ar 
     3    5    2 2  
     4    7    2 1  
     5    8    3 2  
     6    8    4 am 
     7    4   11 ar 
     8    5    8 1  
     9   13    5 1  
    10   20    6 2  
    11   15    7 1  
    12   27    9 ar 
    13   11   10 ar 
    14   27   12 ar 
    15   13   15 2  
    16   28   13 1  
    17   20   14 am 
    18   14   21 1  
    19   17   16 ar 
    20   16   30 ar 
    21   18   17 ar 
    22   17   20 1  
    23   19   18 ar 
    24   29   19 ar 
    25   21   22 ar 
    26   21   26 ar 
    27   22   23 ar 
    28   23   24 ar 
    29   23   31 1  
    30   25   24 ar 
    31   26   25 ar 
    32   26   27 1  
    33   28   29 1  
    34   29   30 ar 
    35    1   32 1  
    36    4   33 1  
    37    7   34 1  
    38   10   35 1  
    39   10   36 1  
    40   14   37 1  
    41   15   38 1  
    42   16   39 1  
    43   18   40 1  
    44   19   41 1  
    45   22   42 1  
    46   24   43 1  
    47   25   44 1  
    48   28   45 1  
    49   28   46 1  
    50   30   47 1  
@<TRIPOS>SUBSTRUCTURE
     1 OE7         1

