### 
### Created by X-TOOL on Mon Aug  2 16:12:06 2021
### 

@<TRIPOS>MOLECULE
6pf4_ligand
   50    53     1     0     0
SMALL
GAST_HUCK


@<TRIPOS>ATOM
      1 N1         31.9220   -5.8820   -8.0860 N.pl3     1 OF7        -0.2072
      2 C1         30.9570   -6.7080   -7.5350 C.2       1 OF7         0.2691
      3 O1         27.9200   -5.2540   -8.6690 O.2       1 OF7        -0.3912
      4 N2         30.0790   -4.6670   -9.0140 N.am      1 OF7        -0.2584
      5 C2         29.6020   -6.5800   -7.6750 C.2       1 OF7         0.1642
      6 O2         24.0370  -10.2150  -11.9270 O.2       1 OF7        -0.3764
      7 N3         31.1990   -7.8050   -6.7500 N.pl3     1 OF7        -0.1663
      8 C3         29.1170   -5.4530   -8.4910 C.2       1 OF7         0.2084
      9 O3         30.7870  -11.0400  -13.3680 O.co2     1 OF7        -0.5668
     10 C10        24.9550   -9.1370   -9.3970 C.ar      1 OF7        -0.0461
     11 C11        25.7920   -9.6740  -10.4020 C.ar      1 OF7         0.0503
     12 C12        27.1910   -9.6380  -10.2120 C.ar      1 OF7        -0.0461
     13 C13        27.7420   -9.0730   -9.0460 C.ar      1 OF7        -0.0500
     14 C14        25.2380  -10.2900  -11.6560 C.2       1 OF7         0.2269
     15 C15        26.1430  -11.5570  -13.6570 C.ar      1 OF7         0.0702
     16 C16        27.3470  -12.1700  -14.0850 C.ar      1 OF7        -0.0082
     17 C17        27.3830  -12.8610  -15.3170 C.ar      1 OF7        -0.0717
     18 C18        26.2310  -12.9420  -16.1190 C.ar      1 OF7        -0.0836
     19 C19        25.0350  -12.3340  -15.6980 C.ar      1 OF7        -0.0822
     20 C20        24.9870  -11.6430  -14.4730 C.ar      1 OF7        -0.0471
     21 C21        28.6060  -12.0900  -13.2180 C.3       1 OF7         0.0298
     22 C22        29.6400  -11.1260  -13.8050 C.2       1 OF7         0.0440
     23 C4         31.4490   -4.9000   -8.8010 C.cat     1 OF7         0.1960
     24 C5         28.9780   -7.6390   -6.9430 C.2       1 OF7         0.0732
     25 C6         29.9970   -8.3760   -6.3860 C.2       1 OF7         0.1270
     26 C7         27.5030   -7.9250   -6.7970 C.3       1 OF7         0.0341
     27 C8         26.9040   -8.5240   -8.0560 C.ar      1 OF7        -0.0213
     28 C9         25.5060   -8.5650   -8.2330 C.ar      1 OF7        -0.0500
     29 N4         32.2370   -3.9650   -9.4380 N.pl3     1 OF7        -0.3347
     30 N5         26.1870  -10.8760  -12.4080 N.am      1 OF7        -0.2366
     31 O4         29.1390  -10.4040  -14.8540 O.co2     1 OF7        -0.5668
     32 H1         32.9310   -6.0312   -7.9427 H         1 OF7         0.2424
     33 H2         29.8071   -3.8862   -9.5765 H         1 OF7         0.1808
     34 H3         32.1304   -8.1486   -6.4754 H         1 OF7         0.2655
     35 H4         23.8787   -9.1656   -9.5231 H         1 OF7         0.0656
     36 H5         27.8467  -10.0492  -10.9710 H         1 OF7         0.0656
     37 H6         28.8173   -9.0605   -8.9095 H         1 OF7         0.0585
     38 H7         28.3031  -13.3308  -15.6453 H         1 OF7         0.0516
     39 H8         26.2649  -13.4738  -17.0630 H         1 OF7         0.0471
     40 H9         24.1483  -12.3977  -16.3183 H         1 OF7         0.0522
     41 H10        24.0632  -11.1751  -14.1524 H         1 OF7         0.0481
     42 H11        29.0537  -13.0922  -13.1469 H         1 OF7         0.0560
     43 H12        28.3248  -11.7419  -12.2131 H         1 OF7         0.0560
     44 H13        29.8755   -9.2608   -5.7629 H         1 OF7         0.1626
     45 H14        26.9810   -6.9836   -6.5705 H         1 OF7         0.0657
     46 H15        27.3605   -8.6323   -5.9667 H         1 OF7         0.0657
     47 H16        24.8528   -8.1552   -7.4712 H         1 OF7         0.0585
     48 H17        33.2629   -4.0196   -9.3637 H         1 OF7         0.1763
     49 H18        31.7998   -3.2119   -9.9882 H         1 OF7         0.1763
     50 H19        27.1035  -10.8227  -12.0116 H         1 OF7         0.2231
@<TRIPOS>BOND
     1    2    1 1  
     2    1   23 ar 
     3    5    2 2  
     4    7    2 1  
     5    8    3 2  
     6    8    4 am 
     7    4   23 ar 
     8    5    8 1  
     9   24    5 1  
    10   14    6 2  
    11   25    7 1  
    12   22    9 ar 
    13   11   10 ar 
    14   10   28 ar 
    15   12   11 ar 
    16   11   14 1  
    17   13   12 ar 
    18   27   13 ar 
    19   14   30 am 
    20   15   16 ar 
    21   15   20 ar 
    22   30   15 1  
    23   16   17 ar 
    24   16   21 1  
    25   17   18 ar 
    26   19   18 ar 
    27   20   19 ar 
    28   21   22 1  
    29   22   31 ar 
    30   23   29 ar 
    31   24   25 2  
    32   26   24 1  
    33   26   27 1  
    34   27   28 ar 
    35    1   32 1  
    36    4   33 1  
    37    7   34 1  
    38   10   35 1  
    39   12   36 1  
    40   13   37 1  
    41   17   38 1  
    42   18   39 1  
    43   19   40 1  
    44   20   41 1  
    45   21   42 1  
    46   21   43 1  
    47   25   44 1  
    48   26   45 1  
    49   26   46 1  
    50   28   47 1  
    51   29   48 1  
    52   29   49 1  
    53   30   50 1  
@<TRIPOS>SUBSTRUCTURE
     1 OF7         1

