### 
### Created by X-TOOL on Mon Aug  2 16:12:06 2021
### 

@<TRIPOS>MOLECULE
6pf5_ligand
   54    57     1     0     0
SMALL
GAST_HUCK


@<TRIPOS>ATOM
      1 O1        -36.1950   -5.8270   27.4190 O.2       1 OED        -0.3912
      2 C6        -40.5670   -5.2220   27.1920 C.2       1 OED         0.1270
      3 C7        -38.7460   -4.1420   28.6440 C.3       1 OED         0.0341
      4 C9        -38.1260   -2.5530   26.7390 C.ar      1 OED        -0.0500
      5 C10       -37.4610   -1.4030   26.2650 C.ar      1 OED        -0.0461
      6 C11       -36.7060   -0.6130   27.1660 C.ar      1 OED         0.0503
      7 C12       -36.6300   -0.9840   28.5240 C.ar      1 OED        -0.0461
      8 C13       -37.2910   -2.1270   28.9930 C.ar      1 OED        -0.0500
      9 C14       -35.9610    0.6260   26.7750 C.2       1 OED         0.2268
     10 C15       -35.5070    2.3130   25.0770 C.ar      1 OED         0.0617
     11 C16       -36.2400    3.3710   24.4700 C.ar      1 OED        -0.0189
     12 C18       -34.1530    4.6350   24.2160 C.ar      1 OED        -0.0547
     13 C20       -34.1100    2.4470   25.2500 C.ar      1 OED        -0.0193
     14 C21       -31.4090    4.7180   24.1610 C.3       1 OED         0.0576
     15 C22       -37.7510    3.3180   24.2500 C.3       1 OED         0.0250
     16 C23       -38.1330    2.4180   23.0730 C.2       1 OED         0.0424
     17 C1        -39.3500   -6.6570   25.9720 C.2       1 OED         0.2691
     18 C17       -35.5450    4.5230   24.0420 C.ar      1 OED        -0.0798
     19 C19       -33.4210    3.5980   24.8220 C.ar      1 OED         0.0705
     20 C2        -38.4870   -5.9990   26.8050 C.2       1 OED         0.1642
     21 C3        -37.0550   -6.3540   26.7160 C.2       1 OED         0.2084
     22 C4        -37.7380   -7.9150   25.0040 C.cat     1 OED         0.1960
     23 C5        -39.2560   -5.0780   27.5820 C.2       1 OED         0.0732
     24 C8        -38.0430   -2.9150   28.1020 C.ar      1 OED        -0.0213
     25 N1        -39.0090   -7.6310   25.0480 N.pl3     1 OED        -0.2072
     26 N2        -36.7590   -7.3060   25.8090 N.am      1 OED        -0.2585
     27 N3        -40.6180   -6.1860   26.2050 N.pl3     1 OED        -0.1663
     28 N4        -37.1890   -8.8550   24.1580 N.pl3     1 OED        -0.3347
     29 N5        -36.1610    1.1400   25.5450 N.am      1 OED        -0.2388
     30 O2        -35.2110    1.1250   27.6140 O.2       1 OED        -0.3763
     31 O3        -32.0620    3.7570   24.9700 O.3       1 OED        -0.3293
     32 O4        -38.6960    2.8440   22.0630 O.co2     1 OED        -0.5671
     33 O5        -37.7770    1.1170   23.2850 O.co2     1 OED        -0.5671
     34 H1        -41.4171   -4.6714   27.5922 H         1 OED         0.1626
     35 H2        -38.0373   -4.6936   29.2791 H         1 OED         0.0657
     36 H3        -39.6010   -3.8100   29.2513 H         1 OED         0.0657
     37 H4        -38.7039   -3.1624   26.0537 H         1 OED         0.0585
     38 H5        -37.5273   -1.1259   25.2191 H         1 OED         0.0656
     39 H6        -36.0534   -0.3779   29.2134 H         1 OED         0.0656
     40 H7        -37.2233   -2.4034   30.0390 H         1 OED         0.0585
     41 H8        -33.6401    5.5289   23.8798 H         1 OED         0.0400
     42 H9        -33.5562    1.6444   25.7235 H         1 OED         0.0403
     43 H10       -30.3344    4.7255   24.3957 H         1 OED         0.0575
     44 H11       -31.8342    5.7131   24.3581 H         1 OED         0.0575
     45 H12       -31.5509    4.4620   23.1007 H         1 OED         0.0575
     46 H13       -38.1157    4.3363   24.0500 H         1 OED         0.0540
     47 H14       -38.2283    2.9300   25.1619 H         1 OED         0.0540
     48 H15       -36.0915    5.3329   23.5726 H         1 OED         0.0491
     49 H16       -39.7039   -8.0934   24.4445 H         1 OED         0.2423
     50 H17       -35.8060   -7.5903   25.7044 H         1 OED         0.1808
     51 H18       -41.4709   -6.5012   25.7211 H         1 OED         0.2655
     52 H19       -37.7934   -9.3801   23.5100 H         1 OED         0.1763
     53 H20       -36.1745   -9.0321   24.1739 H         1 OED         0.1763
     54 H21       -36.7997    0.6743   24.9324 H         1 OED         0.2230
@<TRIPOS>BOND
     1   21    1 2  
     2    2   23 2  
     3   27    2 1  
     4   23    3 1  
     5    3   24 1  
     6    4    5 ar 
     7   24    4 ar 
     8    5    6 ar 
     9    7    6 ar 
    10    6    9 1  
    11    8    7 ar 
    12   24    8 ar 
    13    9   29 am 
    14    9   30 2  
    15   10   11 ar 
    16   10   13 ar 
    17   29   10 1  
    18   11   15 1  
    19   11   18 ar 
    20   18   12 ar 
    21   19   12 ar 
    22   13   19 ar 
    23   31   14 1  
    24   15   16 1  
    25   16   32 ar 
    26   16   33 ar 
    27   20   17 2  
    28   17   25 1  
    29   17   27 1  
    30   19   31 1  
    31   20   21 1  
    32   20   23 1  
    33   21   26 am 
    34   25   22 ar 
    35   22   26 ar 
    36   22   28 ar 
    37    2   34 1  
    38    3   35 1  
    39    3   36 1  
    40    4   37 1  
    41    5   38 1  
    42    7   39 1  
    43    8   40 1  
    44   12   41 1  
    45   13   42 1  
    46   14   43 1  
    47   14   44 1  
    48   14   45 1  
    49   15   46 1  
    50   15   47 1  
    51   18   48 1  
    52   25   49 1  
    53   26   50 1  
    54   27   51 1  
    55   28   52 1  
    56   28   53 1  
    57   29   54 1  
@<TRIPOS>SUBSTRUCTURE
     1 OED         1

