### 
### Created by X-TOOL on Mon Aug  2 16:12:07 2021
### 

@<TRIPOS>MOLECULE
6pf6_ligand
   49    52     1     0     0
SMALL
GAST_HUCK


@<TRIPOS>ATOM
      1 C14        48.9950   22.6400   12.1700 C.2       1 OEJ         0.2300
      2 C13        47.1400   19.4850   13.2220 C.ar      1 OEJ        -0.0500
      3 C1         41.7310   20.6790   15.0410 C.2       1 OEJ         0.2692
      4 C6         43.4510   20.0350   16.3340 C.2       1 OEJ         0.1270
      5 C5         43.7810   19.7150   15.0370 C.2       1 OEJ         0.0732
      6 C4         40.2820   21.1450   13.3600 C.cat     1 OEJ         0.1960
      7 C3         42.3700   20.0820   12.7760 C.2       1 OEJ         0.2084
      8 C2         42.6780   20.1270   14.2200 C.2       1 OEJ         0.1642
      9 C7         45.0570   19.0480   14.5850 C.3       1 OEJ         0.0342
     10 C10        46.8810   22.2710   13.5510 C.ar      1 OEJ        -0.0460
     11 C11        47.9610   21.7540   12.7990 C.ar      1 OEJ         0.0510
     12 C12        48.0800   20.3580   12.6460 C.ar      1 OEJ        -0.0460
     13 C15        50.0220   24.9320   12.4800 C.ar      1 OEJ         0.0843
     14 C16        50.8510   24.9430   11.3300 C.ar      1 OEJ        -0.0232
     15 C17        51.7260   26.0150   11.0610 C.ar      1 OEJ        -0.0006
     16 C18        51.7770   27.0930   11.9640 C.ar      1 OEJ        -0.0594
     17 C19        50.9680   27.0970   13.1130 C.ar      1 OEJ        -0.0577
     18 C20        50.0860   26.0280   13.3920 C.ar      1 OEJ         0.0329
     19 C21        49.2460   26.0950   14.6480 C.2       1 OEJ         0.0562
     20 C22        52.6020   26.0280    9.8400 C.2       1 OEJ         0.0609
     21 C8         46.0640   20.0000   13.9680 C.ar      1 OEJ        -0.0213
     22 C9         45.9380   21.3950   14.1300 C.ar      1 OEJ        -0.0500
     23 N1         40.5110   21.2040   14.6450 N.pl3     1 OEJ        -0.2071
     24 N2         41.1760   20.6000   12.4230 N.am      1 OEJ        -0.2584
     25 N3         42.2030   20.6250   16.3300 N.pl3     1 OEJ        -0.1662
     26 N4         39.1330   21.6060   12.7480 N.pl3     1 OEJ        -0.3347
     27 N5         49.1430   23.8420   12.7620 N.am      1 OEJ        -0.2301
     28 O1         43.1460   19.6080   11.9490 O.2       1 OEJ        -0.3912
     29 O2         49.6280   22.2350   11.1950 O.2       1 OEJ        -0.3747
     30 O3         49.8240   26.7920   15.6700 O.co2     1 OEJ        -0.5650
     31 O4         48.1400   25.5650   14.7500 O.co2     1 OEJ        -0.5650
     32 O5         53.4630   26.8910    9.6780 O.co2     1 OEJ        -0.5602
     33 O6         52.3740   25.0200    8.9470 O.co2     1 OEJ        -0.5602
     34 H1         47.2445   18.4140   13.0911 H         1 OEJ         0.0585
     35 H2         44.0683   19.8539   17.2127 H         1 OEJ         0.1626
     36 H3         44.8015   18.2824   13.8377 H         1 OEJ         0.0657
     37 H4         45.5243   18.5675   15.4572 H         1 OEJ         0.0657
     38 H5         46.7771   23.3419   13.6830 H         1 OEJ         0.0657
     39 H6         48.9078   19.9515   12.0763 H         1 OEJ         0.0657
     40 H7         50.8111   24.1071   10.6410 H         1 OEJ         0.0544
     41 H8         52.4444   27.9254   11.7721 H         1 OEJ         0.0529
     42 H9         51.0212   27.9354   13.7981 H         1 OEJ         0.0617
     43 H10        45.1108   21.7976   14.7034 H         1 OEJ         0.0585
     44 H11        39.8378   21.6088   15.3112 H         1 OEJ         0.2424
     45 H12        40.9169   20.5961   11.4572 H         1 OEJ         0.1808
     46 H13        41.7042   20.9704   17.1624 H         1 OEJ         0.2655
     47 H14        38.3848   22.0332   13.3124 H         1 OEJ         0.1763
     48 H15        39.0243   21.5227   11.7271 H         1 OEJ         0.1763
     49 H16        48.5287   23.9982   13.5355 H         1 OEJ         0.2270
@<TRIPOS>BOND
     1    1   11 1  
     2   27    1 am 
     3    1   29 2  
     4   12    2 ar 
     5    2   21 ar 
     6    8    3 2  
     7    3   23 1  
     8    3   25 1  
     9    5    4 2  
    10    4   25 1  
    11    5    8 1  
    12    9    5 1  
    13   23    6 ar 
    14   24    6 ar 
    15    6   26 ar 
    16    8    7 1  
    17    7   24 am 
    18    7   28 2  
    19   21    9 1  
    20   11   10 ar 
    21   10   22 ar 
    22   11   12 ar 
    23   13   14 ar 
    24   13   18 ar 
    25   13   27 1  
    26   14   15 ar 
    27   15   16 ar 
    28   15   20 1  
    29   16   17 ar 
    30   17   18 ar 
    31   18   19 1  
    32   19   30 ar 
    33   19   31 ar 
    34   20   32 ar 
    35   20   33 ar 
    36   21   22 ar 
    37    2   34 1  
    38    4   35 1  
    39    9   36 1  
    40    9   37 1  
    41   10   38 1  
    42   12   39 1  
    43   14   40 1  
    44   16   41 1  
    45   17   42 1  
    46   22   43 1  
    47   23   44 1  
    48   24   45 1  
    49   25   46 1  
    50   26   47 1  
    51   26   48 1  
    52   27   49 1  
@<TRIPOS>SUBSTRUCTURE
     1 OEJ         1

