### 
### Created by X-TOOL on Mon Aug  2 16:16:02 2021
### 

@<TRIPOS>MOLECULE
6pg3_ligand
   25    25     1     0     0
SMALL
GAST_HUCK


@<TRIPOS>ATOM
      1 C10       -24.0370  -16.9630  139.9390 C.3       1 OHJ         0.0956
      2 C01       -28.6610  -10.7940  143.5710 C.3       1 OHJ        -0.0651
      3 C02       -27.2850  -11.0110  142.9360 C.3       1 OHJ        -0.0538
      4 C03       -27.2910  -12.2930  142.0960 C.3       1 OHJ        -0.0386
      5 C04       -26.0320  -12.5020  141.2850 C.3       1 OHJ         0.0198
      6 C05       -25.8870  -13.8830  140.6790 C.2       1 OHJ         0.1043
      7 N06       -26.7990  -14.5430  139.9310 N.2       1 OHJ        -0.3521
      8 C07       -26.2910  -15.7340  139.5290 C.2       1 OHJ        -0.0387
      9 C08       -25.0150  -15.8070  140.0880 C.2       1 OHJ         0.0691
     10 N09       -24.8050  -14.6530  140.7740 N.pl3     1 OHJ        -0.2579
     11 O11       -24.5980  -18.0140  139.1780 O.3       1 OHJ        -0.3818
     12 H1        -23.7763  -17.3431  140.9378 H         1 OHJ         0.0726
     13 H2        -23.1283  -16.6013  139.4356 H         1 OHJ         0.0726
     14 H3        -28.6465   -9.8723  144.1713 H         1 OHJ         0.0230
     15 H4        -28.9052  -11.6493  144.2182 H         1 OHJ         0.0230
     16 H5        -29.4200  -10.7044  142.7798 H         1 OHJ         0.0230
     17 H6        -26.5277  -11.0988  143.7290 H         1 OHJ         0.0264
     18 H7        -27.0425  -10.1539  142.2906 H         1 OHJ         0.0264
     19 H8        -28.1450  -12.2493  141.4041 H         1 OHJ         0.0291
     20 H9        -27.4120  -13.1505  142.7742 H         1 OHJ         0.0291
     21 H10       -25.1682  -12.3248  141.9426 H         1 OHJ         0.0485
     22 H11       -26.0266  -11.7672  140.4665 H         1 OHJ         0.0485
     23 H12       -26.7777  -16.4785  138.9007 H         1 OHJ         0.0285
     24 H13       -23.9447  -14.4120  141.2865 H         1 OHJ         0.2359
     25 H14       -25.3813  -18.3334  139.6103 H         1 OHJ         0.2125
@<TRIPOS>BOND
     1    9    1 1  
     2    1   11 1  
     3    3    2 1  
     4    4    3 1  
     5    5    4 1  
     6    6    5 1  
     7    7    6 2  
     8    6   10 1  
     9    8    7 1  
    10    8    9 2  
    11    9   10 1  
    12    1   12 1  
    13    1   13 1  
    14    2   14 1  
    15    2   15 1  
    16    2   16 1  
    17    3   17 1  
    18    3   18 1  
    19    4   19 1  
    20    4   20 1  
    21    5   21 1  
    22    5   22 1  
    23    8   23 1  
    24   10   24 1  
    25   11   25 1  
@<TRIPOS>SUBSTRUCTURE
     1 OHJ         1

