### 
### Created by X-TOOL on Mon Aug  2 16:16:02 2021
### 

@<TRIPOS>MOLECULE
6pg4_ligand
   16    16     1     0     0
SMALL
GAST_HUCK


@<TRIPOS>ATOM
      1 CAA        48.5540   -5.7490  101.7040 C.3       1 OHG         0.0080
      2 CAB        49.9250   -5.0740  101.6360 C.2       1 OHG         0.1012
      3 NAC        50.6830   -4.7520  102.6830 N.pl3     1 OHG        -0.2581
      4 NAF        50.5410   -4.6900  100.4930 N.2       1 OHG        -0.3524
      5 CAE        51.7210   -4.1480  100.8380 C.2       1 OHG        -0.0387
      6 CAD        51.7950   -4.1800  102.1840 C.2       1 OHG         0.0691
      7 CAG        52.9540   -3.6380  103.0880 C.3       1 OHG         0.0956
      8 OAH        54.1090   -3.2840  102.3450 O.3       1 OHG        -0.3818
      9 H1         48.2965   -5.9511  102.7542 H         1 OHG         0.0450
     10 H2         48.5833   -6.6959  101.1450 H         1 OHG         0.0450
     11 H3         47.7962   -5.0855  101.2618 H         1 OHG         0.0450
     12 H4         50.4623   -4.9093  103.6767 H         1 OHG         0.2359
     13 H5         52.4761   -3.7563  100.1581 H         1 OHG         0.0285
     14 H6         53.2281   -4.4178  103.8138 H         1 OHG         0.0726
     15 H7         52.5945   -2.7476  103.6247 H         1 OHG         0.0726
     16 H8         54.4332   -4.0479  101.8827 H         1 OHG         0.2125
@<TRIPOS>BOND
     1    1    2 1  
     2    2    3 1  
     3    2    4 2  
     4    3    6 1  
     5    4    5 1  
     6    5    6 2  
     7    6    7 1  
     8    7    8 1  
     9    1    9 1  
    10    1   10 1  
    11    1   11 1  
    12    3   12 1  
    13    5   13 1  
    14    7   14 1  
    15    7   15 1  
    16    8   16 1  
@<TRIPOS>SUBSTRUCTURE
     1 OHG         1

