### 
### Created by X-TOOL on Mon Aug  2 16:16:02 2021
### 

@<TRIPOS>MOLECULE
6pg5_ligand
   43    44     1     0     0
SMALL
GAST_HUCK


@<TRIPOS>ATOM
      1 C10        23.3000   73.7990    5.1900 C.3       1 OHV         0.0330
      2 C15        19.3570   78.3110    6.3430 C.ar      1 OHV        -0.0130
      3 C17        17.5080   79.7660    5.6470 C.ar      1 OHV        -0.0685
      4 C20        20.1940   79.4390    6.3360 C.ar      1 OHV        -0.0578
      5 O01        15.9910   68.5110    5.0560 O.3       1 OHV        -0.3818
      6 C02        17.0660   68.8560    5.9340 C.3       1 OHV         0.0956
      7 C03        18.1600   69.4140    5.0830 C.2       1 OHV         0.0691
      8 C04        18.2940   69.4700    3.7040 C.2       1 OHV        -0.0387
      9 N05        19.4980   70.1230    3.3890 N.2       1 OHV        -0.3521
     10 C06        20.0840   70.4700    4.5560 C.2       1 OHV         0.1043
     11 C07        21.4290   71.1870    4.8110 C.3       1 OHV         0.0198
     12 C08        21.9100   72.1230    3.7140 C.3       1 OHV        -0.0365
     13 C09        23.3020   72.7970    4.0110 C.3       1 OHV        -0.0306
     14 N11        22.3470   74.8080    5.0320 N.am      1 OHV        -0.2624
     15 C12        21.3680   75.1310    5.9340 C.2       1 OHV         0.3216
     16 O13        20.6500   76.2910    5.6610 O.3       1 OHV        -0.2507
     17 C14        19.8910   76.9250    6.6860 C.3       1 OHV         0.1113
     18 C16        18.0060   78.5000    5.9760 C.ar      1 OHV        -0.0578
     19 C18        18.3570   80.8810    5.6610 C.ar      1 OHV        -0.0687
     20 C19        19.7030   80.7070    6.0050 C.ar      1 OHV        -0.0685
     21 O21        21.0870   74.4610    6.9100 O.2       1 OHV        -0.3774
     22 N22        19.2930   70.0660    5.6230 N.pl3     1 OHV        -0.2579
     23 H1         24.2953   74.2618    5.2615 H         1 OHV         0.0519
     24 H2         23.0829   73.2509    6.1186 H         1 OHV         0.0519
     25 H3         16.4638   79.8843    5.3809 H         1 OHV         0.0599
     26 H4         21.2411   79.3251    6.5921 H         1 OHV         0.0557
     27 H5         15.6970   69.2887    4.5964 H         1 OHV         0.2125
     28 H6         17.4206   67.9617    6.4673 H         1 OHV         0.0726
     29 H7         16.7322   69.6093    6.6628 H         1 OHV         0.0726
     30 H8         17.5819   69.0725    2.9823 H         1 OHV         0.0285
     31 H9         22.1990   70.4147    4.9544 H         1 OHV         0.0485
     32 H10        21.3251   71.7769    5.7336 H         1 OHV         0.0485
     33 H11        21.1612   72.9184    3.5852 H         1 OHV         0.0292
     34 H12        21.9970   71.5466    2.7811 H         1 OHV         0.0292
     35 H13        24.0256   72.0008    4.2399 H         1 OHV         0.0286
     36 H14        23.6219   73.3342    3.1060 H         1 OHV         0.0286
     37 H15        22.3826   75.3410    4.1866 H         1 OHV         0.1867
     38 H16        19.0321   76.2791    6.9208 H         1 OHV         0.0776
     39 H17        20.5328   77.0190    7.5744 H         1 OHV         0.0776
     40 H18        17.3399   77.6452    5.9486 H         1 OHV         0.0557
     41 H19        17.9769   81.8644    5.4090 H         1 OHV         0.0559
     42 H20        20.3701   81.5613    6.0150 H         1 OHV         0.0599
     43 H21        19.4939   70.2137    6.6224 H         1 OHV         0.2359
@<TRIPOS>BOND
     1    1   13 1  
     2   14    1 1  
     3    2    4 ar 
     4   17    2 1  
     5    2   18 ar 
     6   18    3 ar 
     7    3   19 ar 
     8    4   20 ar 
     9    6    5 1  
    10    7    6 1  
    11    7    8 2  
    12   22    7 1  
    13    9    8 1  
    14   10    9 2  
    15   11   10 1  
    16   10   22 1  
    17   12   11 1  
    18   13   12 1  
    19   15   14 am 
    20   16   15 1  
    21   15   21 2  
    22   16   17 1  
    23   19   20 ar 
    24    1   23 1  
    25    1   24 1  
    26    3   25 1  
    27    4   26 1  
    28    5   27 1  
    29    6   28 1  
    30    6   29 1  
    31    8   30 1  
    32   11   31 1  
    33   11   32 1  
    34   12   33 1  
    35   12   34 1  
    36   13   35 1  
    37   13   36 1  
    38   14   37 1  
    39   17   38 1  
    40   17   39 1  
    41   18   40 1  
    42   19   41 1  
    43   20   42 1  
    44   22   43 1  
@<TRIPOS>SUBSTRUCTURE
     1 OHV         1

