### 
### Created by X-TOOL on Mon Aug  2 16:16:02 2021
### 

@<TRIPOS>MOLECULE
6pg6_ligand
   32    32     1     0     0
SMALL
GAST_HUCK


@<TRIPOS>ATOM
      1 C10       135.6160  -24.6890   24.9460 C.3       1 OH7         0.0310
      2 C13       135.2310  -27.6470   27.4880 C.3       1 OH7         0.0256
      3 O01       137.6320  -32.0650   20.1310 O.3       1 OH7        -0.3872
      4 C02       138.1490  -31.0070   20.9310 C.3       1 OH7         0.0688
      5 C03       137.1550  -29.8370   21.0610 C.2       1 OH7         0.0052
      6 C04       135.9260  -29.7110   20.4310 C.2       1 OH7         0.0223
      7 N05       135.4210  -28.5210   20.8300 N.pl3     1 OH7        -0.2734
      8 C06       136.3240  -27.9220   21.6550 C.2       1 OH7         0.1078
      9 C07       136.1940  -26.5390   22.2940 C.3       1 OH7         0.0224
     10 C08       134.8730  -26.2590   23.0330 C.3       1 OH7        -0.0357
     11 C09       134.8160  -24.8470   23.6430 C.3       1 OH7        -0.0305
     12 N11       135.1300  -25.6150   25.9510 N.am      1 OH7        -0.2872
     13 C12       135.8850  -26.7540   26.4350 C.2       1 OH7         0.1729
     14 O14       136.9590  -26.9970   26.0110 O.2       1 OH7        -0.3974
     15 N15       137.3730  -28.7370   21.7660 N.2       1 OH7        -0.3318
     16 H1        135.5050  -23.6596   25.3173 H         1 OH7         0.0520
     17 H2        136.6781  -24.8944   24.7468 H         1 OH7         0.0520
     18 H3        135.9188  -28.4628   27.7552 H         1 OH7         0.0467
     19 H4        134.3000  -28.0702   27.0829 H         1 OH7         0.0467
     20 H5        135.0034  -27.0510   28.3841 H         1 OH7         0.0467
     21 H6        136.8339  -32.3973   20.5248 H         1 OH7         0.2117
     22 H7        139.0759  -30.6348   20.4703 H         1 OH7         0.0664
     23 H8        138.3698  -31.3975   21.9353 H         1 OH7         0.0664
     24 H9        135.4616  -30.4252   19.7526 H         1 OH7         0.0661
     25 H10       134.5070  -28.1331   20.5559 H         1 OH7         0.2324
     26 H11       136.2992  -25.7885   21.4967 H         1 OH7         0.0497
     27 H12       137.0150  -26.4236   23.0169 H         1 OH7         0.0497
     28 H13       134.7604  -26.9957   23.8421 H         1 OH7         0.0293
     29 H14       134.0422  -26.3672   22.3202 H         1 OH7         0.0293
     30 H15       135.2158  -24.1363   22.9047 H         1 OH7         0.0286
     31 H16       133.7638  -24.6046   23.8530 H         1 OH7         0.0286
     32 H17       134.2192  -25.4583   26.3331 H         1 OH7         0.1850
@<TRIPOS>BOND
     1    1   11 1  
     2   12    1 1  
     3   13    2 1  
     4    4    3 1  
     5    5    4 1  
     6    5    6 2  
     7   15    5 1  
     8    7    6 1  
     9    8    7 1  
    10    9    8 1  
    11    8   15 2  
    12   10    9 1  
    13   11   10 1  
    14   12   13 am 
    15   13   14 2  
    16    1   16 1  
    17    1   17 1  
    18    2   18 1  
    19    2   19 1  
    20    2   20 1  
    21    3   21 1  
    22    4   22 1  
    23    4   23 1  
    24    6   24 1  
    25    7   25 1  
    26    9   26 1  
    27    9   27 1  
    28   10   28 1  
    29   10   29 1  
    30   11   30 1  
    31   11   31 1  
    32   12   32 1  
@<TRIPOS>SUBSTRUCTURE
     1 OH7         1

