### 
### Created by X-TOOL on Mon Aug  2 16:16:03 2021
### 

@<TRIPOS>MOLECULE
6pg7_ligand
   36    37     1     0     0
SMALL
GAST_HUCK


@<TRIPOS>ATOM
      1 N12        20.4140    5.0710   -3.4480 N.2       1 OH4        -0.3521
      2 C13        16.2250    8.3150   -3.1600 C.ar      1 OH4        -0.0143
      3 C15        16.2240    9.1040   -0.8610 C.ar      1 OH4        -0.0685
      4 C17        14.2040    8.2150   -1.8500 C.ar      1 OH4        -0.0685
      5 C01        15.9460   10.0990   -5.4180 C.3       1 OH4         0.0394
      6 O02        17.1050    9.3470   -5.1000 O.3       1 OH4        -0.3672
      7 C03        16.9310    8.0810   -4.5000 C.3       1 OH4         0.0942
      8 C04        18.3260    7.4450   -4.4410 C.3       1 OH4        -0.0019
      9 C05        18.3370    5.9310   -4.6240 C.3       1 OH4         0.0239
     10 C06        19.7360    5.3400   -4.5640 C.2       1 OH4         0.1046
     11 N07        20.5110    4.9940   -5.6250 N.pl3     1 OH4        -0.2579
     12 C08        21.6610    4.5160   -5.1560 C.2       1 OH4         0.0691
     13 C09        22.8200    4.0050   -6.0190 C.3       1 OH4         0.0956
     14 O10        23.8270    3.4070   -5.2340 O.3       1 OH4        -0.3818
     15 C11        21.5920    4.5740   -3.7750 C.2       1 OH4        -0.0387
     16 C14        16.8940    8.8780   -2.0620 C.ar      1 OH4        -0.0579
     17 C16        14.8820    8.7690   -0.7520 C.ar      1 OH4        -0.0687
     18 C18        14.8740    7.9910   -3.0530 C.ar      1 OH4        -0.0579
     19 H1         16.7480    9.5387   -0.0175 H         1 OH4         0.0599
     20 H2         13.1541    7.9600   -1.7623 H         1 OH4         0.0599
     21 H3         16.2429   11.0542   -5.8757 H         1 OH4         0.0526
     22 H4         15.3727   10.2949   -4.4999 H         1 OH4         0.0526
     23 H5         15.3232    9.5315   -6.1251 H         1 OH4         0.0526
     24 H6         16.2850    7.4458   -5.1239 H         1 OH4         0.0762
     25 H7         18.7682    7.6761   -3.4607 H         1 OH4         0.0338
     26 H8         18.9416    7.8919   -5.2355 H         1 OH4         0.0338
     27 H9         17.8965    5.6922   -5.6032 H         1 OH4         0.0488
     28 H10        17.7292    5.4764   -3.8278 H         1 OH4         0.0488
     29 H11        20.2536    5.0856   -6.6181 H         1 OH4         0.2359
     30 H12        23.2537    4.8514   -6.5718 H         1 OH4         0.0726
     31 H13        22.4338    3.2611   -6.7313 H         1 OH4         0.0726
     32 H14        24.1689    4.0456   -4.6193 H         1 OH4         0.2125
     33 H15        22.3719    4.2643   -3.0809 H         1 OH4         0.0285
     34 H16        17.9423    9.1397   -2.1490 H         1 OH4         0.0557
     35 H17        14.3564    8.9350    0.1814 H         1 OH4         0.0559
     36 H18        14.3465    7.5672   -3.8999 H         1 OH4         0.0557
@<TRIPOS>BOND
     1   10    1 2  
     2    1   15 1  
     3    7    2 1  
     4    2   16 ar 
     5    2   18 ar 
     6   16    3 ar 
     7    3   17 ar 
     8    4   17 ar 
     9   18    4 ar 
    10    6    5 1  
    11    7    6 1  
    12    8    7 1  
    13    9    8 1  
    14    9   10 1  
    15   10   11 1  
    16   11   12 1  
    17   12   13 1  
    18   12   15 2  
    19   13   14 1  
    20    3   19 1  
    21    4   20 1  
    22    5   21 1  
    23    5   22 1  
    24    5   23 1  
    25    7   24 1  
    26    8   25 1  
    27    8   26 1  
    28    9   27 1  
    29    9   28 1  
    30   11   29 1  
    31   13   30 1  
    32   13   31 1  
    33   14   32 1  
    34   15   33 1  
    35   16   34 1  
    36   17   35 1  
    37   18   36 1  
@<TRIPOS>SUBSTRUCTURE
     1 OH4         1

