### 
### Created by X-TOOL on Mon Aug  2 16:16:03 2021
### 

@<TRIPOS>MOLECULE
6pg8_ligand
   32    33     1     0     0
SMALL
GAST_HUCK


@<TRIPOS>ATOM
      1 C10      -111.7530  -17.5020   25.3930 C.ar      1 OGY        -0.0429
      2 C13      -109.1250  -17.5210   26.3060 C.ar      1 OGY        -0.0687
      3 C15      -111.4510  -16.9480   26.6450 C.ar      1 OGY        -0.0603
      4 O01      -117.1470  -24.2080   22.1830 O.3       1 OGY        -0.3818
      5 C02      -117.3960  -22.8940   22.5990 C.3       1 OGY         0.0956
      6 C03      -116.1570  -22.3020   23.2550 C.2       1 OGY         0.0691
      7 C04      -114.9240  -22.9040   23.3460 C.2       1 OGY        -0.0387
      8 N05      -114.1630  -22.0600   23.9970 N.2       1 OGY        -0.3521
      9 C06      -114.8410  -20.9670   24.3140 C.2       1 OGY         0.1045
     10 C07      -114.2460  -19.7810   25.0940 C.3       1 OGY         0.0216
     11 C08      -113.6900  -18.7040   24.1660 C.3       1 OGY        -0.0286
     12 C09      -113.1920  -17.4650   24.9180 C.3       1 OGY        -0.0170
     13 C11      -110.7350  -18.0520   24.6110 C.ar      1 OGY        -0.0603
     14 C12      -109.4230  -18.0620   25.0660 C.ar      1 OGY        -0.0686
     15 C14      -110.1430  -16.9700   27.0890 C.ar      1 OGY        -0.0686
     16 N16      -116.0910  -21.1130   23.8370 N.pl3     1 OGY        -0.2579
     17 H1       -108.1034  -17.5251   26.6685 H         1 OGY         0.0559
     18 H2       -112.2320  -16.5091   27.2553 H         1 OGY         0.0557
     19 H3       -116.4330  -24.2106   21.5563 H         1 OGY         0.2125
     20 H4       -118.2245  -22.8936   23.3226 H         1 OGY         0.0726
     21 H5       -117.6710  -22.2834   21.7264 H         1 OGY         0.0726
     22 H6       -114.6392  -23.8806   22.9572 H         1 OGY         0.0285
     23 H7       -113.4325  -20.1507   25.7355 H         1 OGY         0.0487
     24 H8       -115.0340  -19.3372   25.7202 H         1 OGY         0.0487
     25 H9       -114.4846  -18.3961   23.4705 H         1 OGY         0.0313
     26 H10      -112.8502  -19.1303   23.5977 H         1 OGY         0.0313
     27 H11      -113.3018  -16.5995   24.2480 H         1 OGY         0.0428
     28 H12      -113.8333  -17.3287   25.8013 H         1 OGY         0.0428
     29 H13      -110.9709  -18.4745   23.6410 H         1 OGY         0.0557
     30 H14      -108.6370  -18.4904   24.4547 H         1 OGY         0.0599
     31 H15      -109.9024  -16.5532   28.0603 H         1 OGY         0.0599
     32 H16      -116.8557  -20.4269   23.9107 H         1 OGY         0.2359
@<TRIPOS>BOND
     1    1    3 ar 
     2   12    1 1  
     3    1   13 ar 
     4    2   14 ar 
     5   15    2 ar 
     6    3   15 ar 
     7    5    4 1  
     8    6    5 1  
     9    6    7 2  
    10   16    6 1  
    11    8    7 1  
    12    9    8 2  
    13   10    9 1  
    14    9   16 1  
    15   11   10 1  
    16   11   12 1  
    17   13   14 ar 
    18    2   17 1  
    19    3   18 1  
    20    4   19 1  
    21    5   20 1  
    22    5   21 1  
    23    7   22 1  
    24   10   23 1  
    25   10   24 1  
    26   11   25 1  
    27   11   26 1  
    28   12   27 1  
    29   12   28 1  
    30   13   29 1  
    31   14   30 1  
    32   15   31 1  
    33   16   32 1  
@<TRIPOS>SUBSTRUCTURE
     1 OGY         1

