### 
### Created by X-TOOL on Mon Aug  2 16:16:03 2021
### 

@<TRIPOS>MOLECULE
6pg9_ligand
   39    40     1     0     0
SMALL
GAST_HUCK


@<TRIPOS>ATOM
      1 C10        18.5240  -87.6760   29.3780 C.3       1 OH1         0.0306
      2 C13        21.1330  -88.2570   32.2290 C.ar      1 OH1         0.0498
      3 C15        21.5960  -90.1470   33.6380 C.ar      1 OH1        -0.0562
      4 C17        22.6260  -88.0450   34.1090 C.ar      1 OH1        -0.0562
      5 O01        26.0600  -85.6910   24.8050 O.3       1 OH1        -0.3872
      6 C02        24.9410  -85.0810   25.4260 C.3       1 OH1         0.0688
      7 C03        23.7550  -86.0430   25.6120 C.2       1 OH1         0.0052
      8 C04        23.6110  -87.3090   25.0750 C.2       1 OH1         0.0223
      9 N05        22.4280  -87.7780   25.4600 N.pl3     1 OH1        -0.2734
     10 C06        21.8400  -86.8620   26.2600 C.2       1 OH1         0.1078
     11 C07        20.4590  -86.9960   26.9300 C.3       1 OH1         0.0224
     12 C08        20.1360  -88.3930   27.5270 C.3       1 OH1        -0.0357
     13 C09        18.6950  -88.4840   28.0890 C.3       1 OH1        -0.0305
     14 N11        19.2710  -88.2860   30.4640 N.am      1 OH1        -0.2861
     15 C12        20.3780  -87.6210   31.0640 C.2       1 OH1         0.2049
     16 C14        20.9480  -89.5820   32.5390 C.ar      1 OH1        -0.0419
     17 C16        22.4380  -89.3750   34.4230 C.ar      1 OH1        -0.0575
     18 C18        21.9700  -87.4700   33.0090 C.ar      1 OH1        -0.0419
     19 O19        20.6590  -86.5390   30.7170 O.2       1 OH1        -0.3847
     20 N20        22.6700  -85.8180   26.3400 N.2       1 OH1        -0.3318
     21 H1         17.4576  -87.6433   29.6459 H         1 OH1         0.0519
     22 H2         18.8928  -86.6525   29.2152 H         1 OH1         0.0519
     23 H3         21.4405  -91.1925   33.8785 H         1 OH1         0.0629
     24 H4         23.2866  -87.4380   34.7174 H         1 OH1         0.0629
     25 H5         26.3594  -86.4180   25.3382 H         1 OH1         0.2117
     26 H6         24.6121  -84.2363   24.8028 H         1 OH1         0.0664
     27 H7         25.2486  -84.7094   26.4146 H         1 OH1         0.0664
     28 H8         24.3357  -87.8282   24.4496 H         1 OH1         0.0661
     29 H9         22.0267  -88.6882   25.1928 H         1 OH1         0.2324
     30 H10        19.6928  -86.7650   26.1754 H         1 OH1         0.0497
     31 H11        20.4051  -86.2590   27.7448 H         1 OH1         0.0497
     32 H12        20.8453  -88.6001   28.3419 H         1 OH1         0.0293
     33 H13        20.2541  -89.1493   26.7370 H         1 OH1         0.0293
     34 H14        17.9952  -88.0976   27.3334 H         1 OH1         0.0286
     35 H15        18.4627  -89.5385   28.2987 H         1 OH1         0.0286
     36 H16        19.0028  -89.1901   30.7967 H         1 OH1         0.1845
     37 H17        20.2947  -90.1926   31.9263 H         1 OH1         0.0669
     38 H18        22.9442  -89.8124   35.2759 H         1 OH1         0.0653
     39 H19        22.1154  -86.4225   32.7710 H         1 OH1         0.0669
@<TRIPOS>BOND
     1    1   13 1  
     2   14    1 1  
     3   15    2 1  
     4    2   16 ar 
     5    2   18 ar 
     6   16    3 ar 
     7    3   17 ar 
     8    4   17 ar 
     9   18    4 ar 
    10    6    5 1  
    11    7    6 1  
    12    7    8 2  
    13   20    7 1  
    14    9    8 1  
    15   10    9 1  
    16   11   10 1  
    17   10   20 2  
    18   12   11 1  
    19   13   12 1  
    20   14   15 am 
    21   15   19 2  
    22    1   21 1  
    23    1   22 1  
    24    3   23 1  
    25    4   24 1  
    26    5   25 1  
    27    6   26 1  
    28    6   27 1  
    29    8   28 1  
    30    9   29 1  
    31   11   30 1  
    32   11   31 1  
    33   12   32 1  
    34   12   33 1  
    35   13   34 1  
    36   13   35 1  
    37   14   36 1  
    38   16   37 1  
    39   17   38 1  
    40   18   39 1  
@<TRIPOS>SUBSTRUCTURE
     1 OH1         1

