### 
### Created by X-TOOL on Mon Aug  2 16:16:03 2021
### 

@<TRIPOS>MOLECULE
6pga_ligand
   33    33     1     0     0
SMALL
GAST_HUCK


@<TRIPOS>ATOM
      1 C01         3.2890   76.5820    6.5800 C.3       1 OGM         0.0663
      2 O02         4.0130   76.0960    5.4840 O.3       1 OGM        -0.2673
      3 C03         4.8270   74.9690    5.7730 C.2       1 OGM         0.3192
      4 N04         5.9420   74.6670    4.8930 N.am      1 OGM        -0.2625
      5 C05         6.7090   73.4600    5.0380 C.3       1 OGM         0.0330
      6 C06         6.4930   72.5750    3.8230 C.3       1 OGM        -0.0306
      7 C07         5.0810   71.9910    3.7470 C.3       1 OGM        -0.0365
      8 C08         4.8230   70.8920    4.7800 C.3       1 OGM         0.0198
      9 C09         3.4650   70.2250    4.6230 C.2       1 OGM         0.1043
     10 N10         2.6760   69.8090    5.6320 N.pl3     1 OGM        -0.2579
     11 C11         1.5740   69.2980    5.1230 C.2       1 OGM         0.0691
     12 C12         0.4390   68.7140    5.9390 C.3       1 OGM         0.0956
     13 O13        -0.6380   68.3430    5.1010 O.3       1 OGM        -0.3818
     14 C14         1.6710   69.3830    3.7670 C.2       1 OGM        -0.0387
     15 N15         2.8180   69.9420    3.4840 N.2       1 OGM        -0.3521
     16 O16         4.6010   74.2780    6.7070 O.2       1 OGM        -0.3776
     17 H1          2.6896   77.4499    6.2677 H         1 OGM         0.0575
     18 H2          3.9864   76.8850    7.3749 H         1 OGM         0.0575
     19 H3          2.6224   75.7929    6.9581 H         1 OGM         0.0575
     20 H4          6.1818   75.3139    4.1691 H         1 OGM         0.1867
     21 H5          6.3847   72.9258    5.9432 H         1 OGM         0.0519
     22 H6          7.7764   73.7117    5.1233 H         1 OGM         0.0519
     23 H7          7.2132   71.7445    3.8627 H         1 OGM         0.0286
     24 H8          6.6730   73.1736    2.9179 H         1 OGM         0.0286
     25 H9          4.9320   71.5677    2.7427 H         1 OGM         0.0292
     26 H10         4.3580   72.8031    3.9136 H         1 OGM         0.0292
     27 H11         4.8793   71.3368    5.7844 H         1 OGM         0.0485
     28 H12         5.6033   70.1239    4.6748 H         1 OGM         0.0485
     29 H13         2.8976   69.8789    6.6354 H         1 OGM         0.2359
     30 H14         0.0910   69.4651    6.6634 H         1 OGM         0.0726
     31 H15         0.8007   67.8255    6.4772 H         1 OGM         0.0726
     32 H16        -0.9548   69.1088    4.6366 H         1 OGM         0.2125
     33 H17         0.9263   69.0456    3.0476 H         1 OGM         0.0285
@<TRIPOS>BOND
     1    1    2 1  
     2    2    3 1  
     3    3    4 am 
     4    3   16 2  
     5    4    5 1  
     6    5    6 1  
     7    6    7 1  
     8    7    8 1  
     9    8    9 1  
    10    9   10 1  
    11    9   15 2  
    12   10   11 1  
    13   11   12 1  
    14   11   14 2  
    15   12   13 1  
    16   14   15 1  
    17    1   17 1  
    18    1   18 1  
    19    1   19 1  
    20    4   20 1  
    21    5   21 1  
    22    5   22 1  
    23    6   23 1  
    24    6   24 1  
    25    7   25 1  
    26    7   26 1  
    27    8   27 1  
    28    8   28 1  
    29   10   29 1  
    30   12   30 1  
    31   12   31 1  
    32   13   32 1  
    33   14   33 1  
@<TRIPOS>SUBSTRUCTURE
     1 OGM         1

