### 
### Created by X-TOOL on Mon Aug  2 16:16:03 2021
### 

@<TRIPOS>MOLECULE
6pgb_ligand
   42    43     1     0     0
SMALL
GAST_HUCK


@<TRIPOS>ATOM
      1 C10        23.3090   72.9410    3.8560 C.3       1 OJG        -0.0305
      2 N12        22.4240   74.9410    4.9410 N.am      1 OJG        -0.2853
      3 C13        21.3790   75.2220    5.8820 C.2       1 OJG         0.1875
      4 C15        21.1960   77.6330    6.2960 C.ar      1 OJG        -0.0243
      5 C17        22.8120   79.3970    6.1470 C.ar      1 OJG        -0.0681
      6 C20        20.8800   78.0020    7.5940 C.ar      1 OJG        -0.0580
      7 O01        16.0910   68.6460    5.0680 O.3       1 OJG        -0.3872
      8 C02        17.2020   69.0310    5.8570 C.3       1 OJG         0.0688
      9 C03        18.3540   69.5910    5.0130 C.2       1 OJG         0.0052
     10 C04        18.4900   69.5980    3.6180 C.2       1 OJG         0.0223
     11 N05        19.6550   70.2080    3.3320 N.pl3     1 OJG        -0.2734
     12 C06        20.2060   70.5590    4.5170 C.2       1 OJG         0.1078
     13 N07        19.4220   70.1960    5.5000 N.2       1 OJG        -0.3318
     14 C08        21.5590   71.2640    4.7440 C.3       1 OJG         0.0224
     15 C09        21.9930   72.1800    3.6090 C.3       1 OJG        -0.0357
     16 C11        23.3170   73.8270    5.0980 C.3       1 OJG         0.0312
     17 C14        20.5120   76.4500    5.6450 C.3       1 OJG         0.0703
     18 C16        22.1660   78.3080    5.5880 C.ar      1 OJG        -0.0580
     19 C18        22.5020   79.7610    7.4400 C.ar      1 OJG        -0.0684
     20 C19        21.5360   79.0860    8.1530 C.ar      1 OJG        -0.0681
     21 O21        21.1830   74.5380    6.8180 O.2       1 OJG        -0.3941
     22 H1         23.5044   73.5782    2.9809 H         1 OJG         0.0286
     23 H2         24.1169   72.2016    3.9589 H         1 OJG         0.0286
     24 H3         22.5347   75.5410    4.1487 H         1 OJG         0.1852
     25 H4         23.5483   79.9535    5.5784 H         1 OJG         0.0600
     26 H5         20.1353   77.4538    8.1596 H         1 OJG         0.0561
     27 H6         15.7658   69.4007    4.5913 H         1 OJG         0.2117
     28 H7         17.5643   68.1516    6.4096 H         1 OJG         0.0664
     29 H8         16.8782   69.8040    6.5695 H         1 OJG         0.0664
     30 H9         17.7837   69.1861    2.8987 H         1 OJG         0.0661
     31 H10        20.0496   70.3749    2.3953 H         1 OJG         0.2324
     32 H11        22.3308   70.4914    4.8759 H         1 OJG         0.0497
     33 H12        21.4826   71.8664    5.6612 H         1 OJG         0.0497
     34 H13        22.1175   71.5671    2.7041 H         1 OJG         0.0293
     35 H14        21.1962   72.9202    3.4438 H         1 OJG         0.0293
     36 H15        24.3368   74.2041    5.2644 H         1 OJG         0.0520
     37 H16        23.0000   73.2315    5.9668 H         1 OJG         0.0520
     38 H17        19.5189   76.2990    6.0933 H         1 OJG         0.0659
     39 H18        20.4035   76.6285    4.5650 H         1 OJG         0.0659
     40 H19        22.4250   77.9841    4.5865 H         1 OJG         0.0561
     41 H20        23.0258   80.5900    7.9020 H         1 OJG         0.0561
     42 H21        21.2875   79.4055    9.1586 H         1 OJG         0.0600
@<TRIPOS>BOND
     1   15    1 1  
     2    1   16 1  
     3    2    3 am 
     4   16    2 1  
     5    3   17 1  
     6    3   21 2  
     7    4    6 ar 
     8   17    4 1  
     9    4   18 ar 
    10   18    5 ar 
    11    5   19 ar 
    12    6   20 ar 
    13    8    7 1  
    14    9    8 1  
    15    9   10 2  
    16   13    9 1  
    17   11   10 1  
    18   12   11 1  
    19   12   13 2  
    20   14   12 1  
    21   14   15 1  
    22   19   20 ar 
    23    1   22 1  
    24    1   23 1  
    25    2   24 1  
    26    5   25 1  
    27    6   26 1  
    28    7   27 1  
    29    8   28 1  
    30    8   29 1  
    31   10   30 1  
    32   11   31 1  
    33   14   32 1  
    34   14   33 1  
    35   15   34 1  
    36   15   35 1  
    37   16   36 1  
    38   16   37 1  
    39   17   38 1  
    40   17   39 1  
    41   18   40 1  
    42   19   41 1  
    43   20   42 1  
@<TRIPOS>SUBSTRUCTURE
     1 OJG         1

