### 
### Created by X-TOOL on Mon Aug  2 16:16:03 2021
### 

@<TRIPOS>MOLECULE
6pgc_ligand
   46    47     1     0     0
SMALL
GAST_HUCK


@<TRIPOS>ATOM
      1 O01        24.1290    3.4640   -5.0340 O.3       1 OJJ        -0.3818
      2 C02        23.0530    3.9330   -5.8150 C.3       1 OJJ         0.0956
      3 C03        21.8760    4.4040   -4.9630 C.2       1 OJJ         0.0691
      4 C04        21.7090    4.4200   -3.5990 C.2       1 OJJ        -0.0387
      5 N05        20.5120    4.9700   -3.3590 N.2       1 OJJ        -0.3521
      6 C06        19.9450    5.2770   -4.5270 C.2       1 OJJ         0.1043
      7 C07        18.5740    5.8880   -4.7700 C.3       1 OJJ         0.0198
      8 C08        18.1640    6.9260   -3.7110 C.3       1 OJJ        -0.0365
      9 C09        16.8200    7.5980   -4.0110 C.3       1 OJJ        -0.0302
     10 C10        16.8080    8.4760   -5.2820 C.3       1 OJJ         0.0382
     11 N11        17.5640    9.7060   -5.1040 N.am      1 OJJ        -0.2377
     12 C12        18.7420    9.9900   -5.9150 C.2       1 OJJ         0.3237
     13 O13        19.5770   11.0590   -5.5880 O.3       1 OJJ        -0.2670
     14 C14        20.2730   11.6130   -6.6780 C.3       1 OJJ         0.0663
     15 O15        19.0310    9.3530   -6.8540 O.2       1 OJJ        -0.3773
     16 C16        17.1650   10.6410   -4.0410 C.3       1 OJJ         0.0694
     17 C17        15.7090   11.1230   -4.1370 C.ar      1 OJJ        -0.0208
     18 C18        14.7040   10.5830   -3.3000 C.ar      1 OJJ        -0.0584
     19 C19        13.3870   11.0440   -3.3830 C.ar      1 OJJ        -0.0685
     20 C20        13.0860   12.0570   -4.3000 C.ar      1 OJJ        -0.0687
     21 C21        14.0850   12.6010   -5.1290 C.ar      1 OJJ        -0.0685
     22 C22        15.3920   12.1420   -5.0460 C.ar      1 OJJ        -0.0584
     23 N23        20.7790    4.9180   -5.5120 N.pl3     1 OJJ        -0.2579
     24 H1         24.4367    4.1627   -4.4687 H         1 OJJ         0.2125
     25 H2         22.7109    3.1184   -6.4703 H         1 OJJ         0.0726
     26 H3         23.4035    4.7753   -6.4295 H         1 OJJ         0.0726
     27 H4         22.4156    4.0549   -2.8551 H         1 OJJ         0.0285
     28 H5         17.8284    5.0793   -4.7707 H         1 OJJ         0.0485
     29 H6         18.5823    6.3800   -5.7538 H         1 OJJ         0.0485
     30 H7         18.9407    7.7036   -3.6649 H         1 OJJ         0.0292
     31 H8         18.0922    6.4211   -2.7364 H         1 OJJ         0.0292
     32 H9         16.5552    8.2333   -3.1530 H         1 OJJ         0.0286
     33 H10        16.0620    6.8100   -4.1315 H         1 OJJ         0.0286
     34 H11        15.7665    8.7320   -5.5266 H         1 OJJ         0.0523
     35 H12        17.2499    7.9050   -6.1119 H         1 OJJ         0.0523
     36 H13        20.9021   12.4443   -6.3270 H         1 OJJ         0.0575
     37 H14        19.5531   11.9864   -7.4212 H         1 OJJ         0.0575
     38 H15        20.9080   10.8415   -7.1380 H         1 OJJ         0.0575
     39 H16        17.8232   11.5209   -4.0911 H         1 OJJ         0.0685
     40 H17        17.2982   10.1381   -3.0718 H         1 OJJ         0.0685
     41 H18        14.9575    9.8054   -2.5886 H         1 OJJ         0.0557
     42 H19        12.6139   10.6248   -2.7492 H         1 OJJ         0.0599
     43 H20        12.0700   12.4278   -4.3730 H         1 OJJ         0.0559
     44 H21        13.8321   13.3827   -5.8361 H         1 OJJ         0.0599
     45 H22        16.1618   12.5681   -5.6791 H         1 OJJ         0.0557
     46 H23        20.6012    5.0221   -6.5212 H         1 OJJ         0.2359
@<TRIPOS>BOND
     1    1    2 1  
     2    2    3 1  
     3    3    4 2  
     4    3   23 1  
     5    4    5 1  
     6    5    6 2  
     7    6    7 1  
     8    6   23 1  
     9    7    8 1  
    10    8    9 1  
    11    9   10 1  
    12   10   11 1  
    13   11   12 am 
    14   11   16 1  
    15   12   13 1  
    16   12   15 2  
    17   13   14 1  
    18   16   17 1  
    19   17   18 ar 
    20   17   22 ar 
    21   18   19 ar 
    22   19   20 ar 
    23   20   21 ar 
    24   21   22 ar 
    25    1   24 1  
    26    2   25 1  
    27    2   26 1  
    28    4   27 1  
    29    7   28 1  
    30    7   29 1  
    31    8   30 1  
    32    8   31 1  
    33    9   32 1  
    34    9   33 1  
    35   10   34 1  
    36   10   35 1  
    37   14   36 1  
    38   14   37 1  
    39   14   38 1  
    40   16   39 1  
    41   16   40 1  
    42   18   41 1  
    43   19   42 1  
    44   20   43 1  
    45   21   44 1  
    46   22   45 1  
    47   23   46 1  
@<TRIPOS>SUBSTRUCTURE
     1 OJJ         1

