### 
### Created by X-TOOL on Mon Aug  2 16:16:04 2021
### 

@<TRIPOS>MOLECULE
6pge_ligand
   28    28     1     0     0
SMALL
GAST_HUCK


@<TRIPOS>ATOM
      1 CB          4.9180   -4.2480  100.7040 C.2       1 OJM         0.0223
      2 CA          5.1320   -4.2130  102.0700 C.2       1 OJM         0.0052
      3 C8          3.1430   -5.1970  101.6500 C.2       1 OJM         0.1102
      4 C4          0.3470   -7.7570  101.3880 C.2       1 OJM         0.2362
      5 C1         -2.8390   -8.4340   99.9140 C.3       1 OJM        -0.0371
      6 C           6.2370   -3.6990  102.9160 C.3       1 OJM         0.0688
      7 C7          1.8260   -5.8670  101.8690 C.3       1 OJM         0.0405
      8 C6          1.4350   -6.8800  100.8400 C.3       1 OJM         0.0640
      9 C2         -1.7130   -8.5800  100.9080 C.3       1 OJM         0.0740
     10 N9          3.6870   -4.8640  100.4880 N.pl3     1 OJM        -0.2733
     11 N           3.9930   -4.8230  102.5960 N.2       1 OJM        -0.3316
     12 O5          0.4810   -8.6360  102.2300 O.2       1 OJM        -0.3702
     13 O           7.3980   -3.3440  102.1720 O.3       1 OJM        -0.3872
     14 O3         -0.8300   -7.4410  100.8060 O.3       1 OJM        -0.2770
     15 H1          5.5892   -3.8641   99.9371 H         1 OJM         0.0661
     16 H2         -3.5113   -9.3012   99.9916 H         1 OJM         0.0255
     17 H3         -2.4251   -8.3809   98.8962 H         1 OJM         0.0255
     18 H4         -3.4014   -7.5136  100.1296 H         1 OJM         0.0255
     19 H5          6.5124   -4.4782  103.6419 H         1 OJM         0.0664
     20 H6          5.8802   -2.8075  103.4526 H         1 OJM         0.0664
     21 H7          1.0495   -5.0881  101.8886 H         1 OJM         0.0523
     22 H8          1.8624   -6.3732  102.8449 H         1 OJM         0.0523
     23 H9          1.0715   -6.3651   99.9385 H         1 OJM         0.0546
     24 H10         2.3085   -7.4971  100.5828 H         1 OJM         0.0546
     25 H11        -1.1506   -9.5004  100.6924 H         1 OJM         0.0610
     26 H12        -2.1269   -8.6331  101.9258 H         1 OJM         0.0610
     27 H13         3.2636   -5.0348   99.5647 H         1 OJM         0.2324
     28 H14         7.7224   -4.1080  101.7098 H         1 OJM         0.2117
@<TRIPOS>BOND
     1    2    1 2  
     2   10    1 1  
     3    2    6 1  
     4   11    2 1  
     5    7    3 1  
     6    3   10 1  
     7    3   11 2  
     8    4    8 1  
     9    4   12 2  
    10   14    4 1  
    11    9    5 1  
    12    6   13 1  
    13    8    7 1  
    14    9   14 1  
    15    1   15 1  
    16    5   16 1  
    17    5   17 1  
    18    5   18 1  
    19    6   19 1  
    20    6   20 1  
    21    7   21 1  
    22    7   22 1  
    23    8   23 1  
    24    8   24 1  
    25    9   25 1  
    26    9   26 1  
    27   10   27 1  
    28   13   28 1  
@<TRIPOS>SUBSTRUCTURE
     1 OJM         1

