### 
### Created by X-TOOL on Mon Aug  2 16:11:39 2021
### 

@<TRIPOS>MOLECULE
6pgo_ligand
   59    63     1     0     0
SMALL
GAST_HUCK


@<TRIPOS>ATOM
      1 C01         5.7280   -3.7740   40.0010 C.3       1 OJ1        -0.0482
      2 C02         6.9070   -4.6230   40.4260 C.3       1 OJ1         0.0346
      3 C03         8.2370   -3.8780   40.3540 C.2       1 OJ1         0.1783
      4 O04         8.6450   -3.4520   39.3190 O.2       1 OJ1        -0.3969
      5 N05         9.0080   -3.6940   41.5630 N.am      1 OJ1        -0.2691
      6 C06        10.2450   -3.0270   41.5230 C.3       1 OJ1         0.0552
      7 C07        10.2570   -1.9420   42.5700 C.3       1 OJ1         0.0562
      8 N08        10.1410   -2.5770   43.9220 N.pl3     1 OJ1        -0.2775
      9 C09         8.7650   -3.1410   43.9690 C.3       1 OJ1         0.0562
     10 C10         8.6130   -4.1650   42.8480 C.3       1 OJ1         0.0552
     11 C11        10.6610   -1.7300   44.9520 C.ar      1 OJ1         0.1253
     12 N12         9.8380   -0.9740   45.6610 N.ar      1 OJ1        -0.2832
     13 N13        10.3140   -0.1210   46.6180 N.ar      1 OJ1        -0.2809
     14 C14        11.6160   -0.0240   46.8420 C.ar      1 OJ1         0.0658
     15 C15        12.0240    0.8620   47.8150 C.ar      1 OJ1         0.0142
     16 C16        11.8540    0.5540   49.1600 C.ar      1 OJ1        -0.0439
     17 C17        12.2660    1.4650   50.1270 C.ar      1 OJ1        -0.0547
     18 C18        12.8330    2.6770   49.7460 C.ar      1 OJ1        -0.0560
     19 C19        12.9990    2.9800   48.4010 C.ar      1 OJ1        -0.0547
     20 C20        12.5870    2.0750   47.4320 C.ar      1 OJ1        -0.0439
     21 C21        12.5600   -0.8020   46.0970 C.ar      1 OJ1         0.0323
     22 C22        13.9720   -0.7250   46.3100 C.ar      1 OJ1        -0.0309
     23 C23        14.8570   -1.5060   45.5650 C.ar      1 OJ1         0.0075
     24 C24        14.3490   -2.3700   44.5880 C.ar      1 OJ1         0.0596
     25 CL25       15.4590   -3.3740   43.6220 Cl        1 OJ1        -0.0637
     26 C26        12.9740   -2.4520   44.3730 C.ar      1 OJ1        -0.0210
     27 C27        12.0730   -1.6500   45.1440 C.ar      1 OJ1         0.0518
     28 C28        16.2240   -1.3890   45.8010 C.ar      1 OJ1         0.0532
     29 C29        16.8010   -1.8960   46.9630 C.ar      1 OJ1         0.0992
     30 O30        16.0050   -2.5570   47.9060 O.3       1 OJ1        -0.3303
     31 C31        18.1680   -1.7520   47.1860 C.ar      1 OJ1        -0.0339
     32 C32        18.9640   -1.0940   46.2570 C.ar      1 OJ1        -0.0705
     33 C33        18.3950   -0.5840   45.0970 C.ar      1 OJ1        -0.0364
     34 C34        17.0300   -0.7270   44.8740 C.ar      1 OJ1         0.1363
     35 F35        16.4810   -0.2240   43.7330 F         1 OJ1        -0.1832
     36 H1          4.8040   -4.3663   40.0752 H         1 OJ1         0.0254
     37 H2          5.8695   -3.4441   38.9612 H         1 OJ1         0.0254
     38 H3          5.6536   -2.8947   40.6577 H         1 OJ1         0.0254
     39 H4          6.9617   -5.5017   39.7666 H         1 OJ1         0.0500
     40 H5          6.7458   -4.9523   41.4631 H         1 OJ1         0.0500
     41 H6         10.3901   -2.5801   40.5284 H         1 OJ1         0.0543
     42 H7         11.0556   -3.7425   41.7254 H         1 OJ1         0.0543
     43 H8          9.4086   -1.2611   42.4070 H         1 OJ1         0.0555
     44 H9         11.1984   -1.3767   42.5063 H         1 OJ1         0.0555
     45 H10         8.0301   -2.3338   43.8340 H         1 OJ1         0.0555
     46 H11         8.5989   -3.6295   44.9405 H         1 OJ1         0.0555
     47 H12         9.2287   -5.0418   43.0973 H         1 OJ1         0.0543
     48 H13         7.5554   -4.4627   42.7951 H         1 OJ1         0.0543
     49 H14        11.4043   -0.3879   49.4526 H         1 OJ1         0.0678
     50 H15        12.1452    1.2304   51.1784 H         1 OJ1         0.0634
     51 H16        13.1465    3.3877   50.5021 H         1 OJ1         0.0666
     52 H17        13.4495    3.9215   48.1081 H         1 OJ1         0.0634
     53 H18        12.7036    2.3128   46.3809 H         1 OJ1         0.0678
     54 H19        14.3615   -0.0489   47.0625 H         1 OJ1         0.0695
     55 H20        12.5853   -3.1262   43.6184 H         1 OJ1         0.0716
     56 H21        15.5982   -3.3138   47.5006 H         1 OJ1         0.2502
     57 H22        18.6129   -2.1552   48.0885 H         1 OJ1         0.0513
     58 H23        20.0267   -0.9788   46.4369 H         1 OJ1         0.0593
     59 H24        19.0141   -0.0754   44.3668 H         1 OJ1         0.0517
@<TRIPOS>BOND
     1    1    2 1  
     2    2    3 1  
     3    3    4 2  
     4    3    5 am 
     5    5    6 1  
     6    5   10 1  
     7    6    7 1  
     8    7    8 1  
     9    8    9 1  
    10    8   11 1  
    11    9   10 1  
    12   11   12 ar 
    13   11   27 ar 
    14   12   13 ar 
    15   13   14 ar 
    16   14   15 1  
    17   14   21 ar 
    18   15   16 ar 
    19   15   20 ar 
    20   16   17 ar 
    21   17   18 ar 
    22   18   19 ar 
    23   19   20 ar 
    24   21   22 ar 
    25   21   27 ar 
    26   22   23 ar 
    27   23   24 ar 
    28   23   28 1  
    29   24   25 1  
    30   24   26 ar 
    31   26   27 ar 
    32   28   29 ar 
    33   28   34 ar 
    34   29   30 1  
    35   29   31 ar 
    36   31   32 ar 
    37   32   33 ar 
    38   33   34 ar 
    39   34   35 1  
    40    1   36 1  
    41    1   37 1  
    42    1   38 1  
    43    2   39 1  
    44    2   40 1  
    45    6   41 1  
    46    6   42 1  
    47    7   43 1  
    48    7   44 1  
    49    9   45 1  
    50    9   46 1  
    51   10   47 1  
    52   10   48 1  
    53   16   49 1  
    54   17   50 1  
    55   18   51 1  
    56   19   52 1  
    57   20   53 1  
    58   22   54 1  
    59   26   55 1  
    60   30   56 1  
    61   31   57 1  
    62   32   58 1  
    63   33   59 1  
@<TRIPOS>SUBSTRUCTURE
     1 OJ1         1

