### 
### Created by X-TOOL on Mon Aug  2 16:11:39 2021
### 

@<TRIPOS>MOLECULE
6pgp_ligand
   69    73     1     0     0
SMALL
GAST_HUCK


@<TRIPOS>ATOM
      1 C29         5.9070    0.2710  -12.9140 C.3       1 OHY        -0.0544
      2 C28         4.4840   -0.1810  -13.2180 C.3       1 OHY        -0.0149
      3 C30         4.4360   -1.0110  -14.5160 C.3       1 OHY        -0.0544
      4 C11         3.5980    1.0760  -13.3310 C.ar      1 OHY        -0.0099
      5 C12         3.8440    2.0600  -14.2990 C.ar      1 OHY        -0.0695
      6 C13         3.0300    3.1850  -14.3650 C.ar      1 OHY        -0.0809
      7 C14         1.9780    3.3590  -13.4730 C.ar      1 OHY        -0.0788
      8 C15         1.7390    2.3850  -12.5070 C.ar      1 OHY        -0.0388
      9 C10         2.5470    1.2520  -12.4410 C.ar      1 OHY         0.1019
     10 N2          2.2560    0.3080  -11.4330 N.am      1 OHY        -0.1619
     11 C2          2.7130    0.4800  -10.1130 C.ar      1 OHY         0.1178
     12 C3          3.5010    1.5830   -9.7760 C.ar      1 OHY        -0.0205
     13 C9          1.4610   -0.7890  -11.7460 C.2       1 OHY         0.2726
     14 O1          1.0600   -0.9280  -12.9050 O.2       1 OHY        -0.3885
     15 N1          1.1470   -1.6900  -10.8040 N.2       1 OHY        -0.2504
     16 C8          1.5640   -1.5690   -9.5280 C.2       1 OHY         0.1269
     17 N3          1.1810   -2.5930   -8.6520 N.pl3     1 OHY        -0.2751
     18 C24         2.0940   -3.0130   -7.5790 C.3       1 OHY         0.0566
     19 C23         2.0610   -4.5140   -7.3550 C.3       1 OHY         0.0551
     20 C21        -0.0370   -3.3850   -8.9530 C.3       1 OHY         0.0566
     21 C22        -0.4790   -4.2560   -7.7880 C.3       1 OHY         0.0551
     22 N4          0.6590   -4.9850   -7.1690 N.am      1 OHY        -0.2692
     23 C25         0.4370   -6.0740   -6.4330 C.2       1 OHY         0.1783
     24 O3          1.3800   -6.6800   -5.9240 O.2       1 OHY        -0.3969
     25 C26        -0.9890   -6.5900   -6.2410 C.3       1 OHY         0.0346
     26 C27        -1.1630   -7.9090   -6.9920 C.3       1 OHY        -0.0482
     27 C1          2.3630   -0.4690   -9.1520 C.ar      1 OHY         0.0698
     28 C6          2.8290   -0.2810   -7.8550 C.ar      1 OHY        -0.0363
     29 C5          3.6110    0.8290   -7.5210 C.ar      1 OHY         0.0395
     30 CL1         4.1360    0.9940   -5.8890 Cl        1 OHY        -0.0812
     31 C4          3.9660    1.7810   -8.4820 C.ar      1 OHY        -0.0112
     32 C7          4.7690    2.9100   -8.2210 C.ar      1 OHY         0.0487
     33 C20         6.1290    2.7630   -7.8960 C.ar      1 OHY         0.1360
     34 F1          6.6920    1.5450   -7.7870 F         1 OHY        -0.1832
     35 C19         6.9270    3.8830   -7.6500 C.ar      1 OHY        -0.0364
     36 C18         6.3940    5.1600   -7.7510 C.ar      1 OHY        -0.0705
     37 C17         5.0520    5.3220   -8.0860 C.ar      1 OHY        -0.0339
     38 C16         4.2520    4.2040   -8.3290 C.ar      1 OHY         0.0989
     39 O2          2.9510    4.3900   -8.6600 O.3       1 OHY        -0.3303
     40 H1          6.5609   -0.6094  -12.8283 H         1 OHY         0.0252
     41 H2          5.9196    0.8307  -11.9671 H         1 OHY         0.0252
     42 H3          6.2679    0.9179  -13.7272 H         1 OHY         0.0252
     43 H4          4.1190   -0.8057  -12.3895 H         1 OHY         0.0434
     44 H5          3.4001   -1.3244  -14.7127 H         1 OHY         0.0252
     45 H6          5.0736   -1.9006  -14.4062 H         1 OHY         0.0252
     46 H7          4.7999   -0.4003  -15.3554 H         1 OHY         0.0252
     47 H8          4.6673    1.9438  -14.9945 H         1 OHY         0.0521
     48 H9          3.2182    3.9371  -15.1226 H         1 OHY         0.0495
     49 H10         1.3516    4.2419  -13.5288 H         1 OHY         0.0528
     50 H11         0.9225    2.5086  -11.8048 H         1 OHY         0.0514
     51 H12         3.7564    2.3035  -10.5445 H         1 OHY         0.0526
     52 H13         1.8008   -2.5089   -6.6464 H         1 OHY         0.0553
     53 H14         3.1185   -2.7173   -7.8492 H         1 OHY         0.0553
     54 H15         2.6469   -4.7586   -6.4567 H         1 OHY         0.0543
     55 H16         2.4996   -5.0197   -8.2278 H         1 OHY         0.0543
     56 H17         0.1705   -4.0334   -9.8170 H         1 OHY         0.0553
     57 H18        -0.8537   -2.6917   -9.2025 H         1 OHY         0.0553
     58 H19        -1.2133   -4.9894   -8.1525 H         1 OHY         0.0543
     59 H20        -0.9471   -3.6166   -7.0251 H         1 OHY         0.0543
     60 H21        -1.7020   -5.8494   -6.6323 H         1 OHY         0.0500
     61 H22        -1.1787   -6.7512   -5.1696 H         1 OHY         0.0500
     62 H23        -2.1898   -8.2779   -6.8521 H         1 OHY         0.0254
     63 H24        -0.4506   -8.6504   -6.6010 H         1 OHY         0.0254
     64 H25        -0.9739   -7.7485   -8.0637 H         1 OHY         0.0254
     65 H26         2.5816   -1.0078   -7.0897 H         1 OHY         0.0665
     66 H27         7.9685    3.7536   -7.3787 H         1 OHY         0.0517
     67 H28         7.0189    6.0271   -7.5701 H         1 OHY         0.0594
     68 H29         4.6282    6.3171   -8.1581 H         1 OHY         0.0513
     69 H30         2.5097    4.8528   -7.9575 H         1 OHY         0.2502
@<TRIPOS>BOND
     1    1    2 1  
     2    2    3 1  
     3    2    4 1  
     4    4    5 ar 
     5    4    9 ar 
     6    5    6 ar 
     7    6    7 ar 
     8    7    8 ar 
     9    8    9 ar 
    10    9   10 1  
    11   10   11 1  
    12   10   13 am 
    13   11   12 ar 
    14   11   27 ar 
    15   12   31 ar 
    16   13   14 2  
    17   13   15 1  
    18   15   16 2  
    19   16   17 1  
    20   16   27 1  
    21   17   18 1  
    22   17   20 1  
    23   18   19 1  
    24   19   22 1  
    25   20   21 1  
    26   21   22 1  
    27   22   23 am 
    28   23   24 2  
    29   23   25 1  
    30   25   26 1  
    31   27   28 ar 
    32   28   29 ar 
    33   29   30 1  
    34   29   31 ar 
    35   31   32 1  
    36   32   33 ar 
    37   32   38 ar 
    38   33   34 1  
    39   33   35 ar 
    40   35   36 ar 
    41   36   37 ar 
    42   37   38 ar 
    43   38   39 1  
    44    1   40 1  
    45    1   41 1  
    46    1   42 1  
    47    2   43 1  
    48    3   44 1  
    49    3   45 1  
    50    3   46 1  
    51    5   47 1  
    52    6   48 1  
    53    7   49 1  
    54    8   50 1  
    55   12   51 1  
    56   18   52 1  
    57   18   53 1  
    58   19   54 1  
    59   19   55 1  
    60   20   56 1  
    61   20   57 1  
    62   21   58 1  
    63   21   59 1  
    64   25   60 1  
    65   25   61 1  
    66   26   62 1  
    67   26   63 1  
    68   26   64 1  
    69   28   65 1  
    70   35   66 1  
    71   36   67 1  
    72   37   68 1  
    73   39   69 1  
@<TRIPOS>SUBSTRUCTURE
     1 OHY         1

