### 
### Created by X-TOOL on Mon Aug  2 16:16:04 2021
### 

@<TRIPOS>MOLECULE
6phr_ligand
   33    32     1     0     0
SMALL
GAST_HUCK


@<TRIPOS>ATOM
      1 C2         28.0970   -1.4590   56.8550 C.3       1 SS9        -0.0305
      2 C3         27.8350   -0.9950   58.2960 C.3       1 SS9         0.0275
      3 C4         29.0500   -1.3920   59.1280 C.3       1 SS9        -0.0288
      4 C6         31.3680   -1.0450   59.5300 C.3       1 SS9        -0.0337
      5 C7         31.4550   -0.6110   60.9840 C.3       1 SS9        -0.0126
      6 C8         32.1430    0.7410   61.0330 C.3       1 SS9        -0.0475
      7 C9         32.4850    1.1080   62.4830 C.3       1 SS9        -0.0441
      8 C10        33.2490    2.4150   62.3930 C.3       1 SS9        -0.0093
      9 N1         27.1830   -0.7990   55.9370 N.4       1 SS9         0.2187
     10 N5         30.1800   -0.5100   58.8680 N.4       1 SS9         0.2271
     11 S11        33.7270    3.0920   64.0070 S.3       1 SS9        -0.1783
     12 H1         27.9508   -2.5474   56.7922 H         1 SS9         0.0815
     13 H2         29.1320   -1.2114   56.5768 H         1 SS9         0.0815
     14 H3         26.9323   -1.4842   58.6908 H         1 SS9         0.0369
     15 H4         27.7016    0.0966   58.3217 H         1 SS9         0.0369
     16 H5         29.3354   -2.4240   58.8759 H         1 SS9         0.0816
     17 H6         28.7883   -1.3342   60.1948 H         1 SS9         0.0816
     18 H7         31.3326   -2.1437   59.4890 H         1 SS9         0.0814
     19 H8         32.2620   -0.6868   58.9986 H         1 SS9         0.0814
     20 H9         32.0374   -1.3465   61.5583 H         1 SS9         0.0317
     21 H10        30.4441   -0.5304   61.4100 H         1 SS9         0.0317
     22 H11        31.4728    1.5054   60.6130 H         1 SS9         0.0267
     23 H12        33.0688    0.6995   60.4405 H         1 SS9         0.0267
     24 H13        33.1094    0.3271   62.9415 H         1 SS9         0.0273
     25 H14        31.5669    1.2379   63.0748 H         1 SS9         0.0273
     26 H15        32.6150    3.1535   61.8805 H         1 SS9         0.0374
     27 H16        34.1620    2.2439   61.8039 H         1 SS9         0.0374
     28 H17        27.3664   -1.1127   54.9968 H         1 SS9         0.1994
     29 H18        27.3157    0.1988   55.9901 H         1 SS9         0.1994
     30 H19        26.2333   -1.0255   56.1875 H         1 SS9         0.1994
     31 H20        29.9793    0.4102   59.2272 H         1 SS9         0.2013
     32 H21        30.3433   -0.4548   57.8749 H         1 SS9         0.2013
     33 H22        34.2284    3.9561   63.8725 H         1 SS9         0.1016
@<TRIPOS>BOND
     1    2    1 1  
     2    1    9 1  
     3    3    2 1  
     4   10    3 1  
     5    4    5 1  
     6    4   10 1  
     7    5    6 1  
     8    6    7 1  
     9    7    8 1  
    10    8   11 1  
    11    1   12 1  
    12    1   13 1  
    13    2   14 1  
    14    2   15 1  
    15    3   16 1  
    16    3   17 1  
    17    4   18 1  
    18    4   19 1  
    19    5   20 1  
    20    5   21 1  
    21    6   22 1  
    22    6   23 1  
    23    7   24 1  
    24    7   25 1  
    25    8   26 1  
    26    8   27 1  
    27    9   28 1  
    28    9   29 1  
    29    9   30 1  
    30   10   31 1  
    31   10   32 1  
    32   11   33 1  
@<TRIPOS>SUBSTRUCTURE
     1 SS9         1

