### 
### Created by X-TOOL on Sat Aug  7 21:31:20 2021
### 

@<TRIPOS>MOLECULE
6phx_ligand
   66    68     1     0     0
SMALL
GAST_HUCK


@<TRIPOS>ATOM
      1 C1        -30.2170  -56.7700  -25.4250 C.3       1 GLA808      0.1880
      2 C2        -30.1760  -55.4920  -24.6020 C.3       1 GLA808      0.1341
      3 C3        -31.3680  -55.5110  -23.6710 C.3       1 GLA808      0.1141
      4 C4        -32.6310  -55.5570  -24.5380 C.3       1 GLA808      0.1119
      5 C5        -32.6380  -56.7360  -25.5450 C.3       1 GLA808      0.1130
      6 C6        -33.7770  -56.6640  -26.5770 C.3       1 GLA808      0.0730
      7 O2        -28.9720  -55.4340  -23.8560 O.3       1 GLA808     -0.3841
      8 O3        -31.3010  -54.3240  -22.8690 O.3       1 GLA808     -0.3864
      9 O4        -32.7090  -54.3140  -25.2370 O.3       1 GLA808     -0.3865
     10 O5        -31.3990  -56.7180  -26.2420 O.3       1 GLA808     -0.3405
     11 O6        -33.6870  -57.7830  -27.4750 O.3       1 GLA808     -0.3924
     12 C1        -31.8580  -62.2710  -24.0320 C.3       1 GLC809      0.1912
     13 C2        -30.8570  -63.2990  -24.5930 C.3       1 GLC809      0.1342
     14 C3        -29.4230  -62.8270  -24.3690 C.3       1 GLC809      0.1141
     15 C4        -29.2520  -61.3710  -24.8470 C.3       1 GLC809      0.1119
     16 C5        -30.3050  -60.3740  -24.3530 C.3       1 GLC809      0.1134
     17 C6        -30.1830  -59.1460  -25.2520 C.3       1 GLC809      0.0796
     18 O2        -31.0630  -64.5670  -23.9490 O.3       1 GLC809     -0.3841
     19 O3        -28.5510  -63.7120  -25.0920 O.3       1 GLC809     -0.3864
     20 O4        -27.9690  -60.8670  -24.4980 O.3       1 GLC809     -0.3865
     21 O5        -31.6390  -60.9200  -24.5010 O.3       1 GLC809     -0.3404
     22 O6        -30.1440  -57.9020  -24.5330 O.3       1 GLC809     -0.3460
     23 C1        -34.7960  -62.2930  -22.4640 C.3       1 FRU810      0.1009
     24 C2        -33.4050  -62.0510  -21.8240 C.3       1 FRU810      0.2252
     25 C3        -33.2770  -62.7390  -20.4500 C.3       1 FRU810      0.1395
     26 C4        -32.4080  -61.7820  -19.6410 C.3       1 FRU810      0.1145
     27 C5        -32.7150  -60.4090  -20.2470 C.3       1 FRU810      0.1134
     28 C6        -31.4540  -59.5830  -20.4000 C.3       1 FRU810      0.0730
     29 O1        -35.0020  -63.5760  -23.0930 O.3       1 FRU810     -0.3896
     30 O2        -32.3010  -62.4620  -22.6840 O.3       1 FRU810     -0.3125
     31 O3        -32.6390  -64.0190  -20.5340 O.3       1 FRU810     -0.3837
     32 O4        -32.5900  -61.8800  -18.2120 O.3       1 FRU810     -0.3864
     33 O5        -33.2490  -60.6360  -21.5630 O.3       1 FRU810     -0.3362
     34 O6        -31.8650  -58.3000  -20.8260 O.3       1 FRU810     -0.3924
     35 H1        -29.3412  -56.8056  -26.0895 H         1 GLA808      0.0937
     36 H2        -30.2353  -54.6173  -25.2663 H         1 GLA808      0.0671
     37 H3        -31.3359  -56.3976  -23.0207 H         1 GLA808      0.0648
     38 H4        -33.5070  -55.6616  -23.8810 H         1 GLA808      0.0647
     39 H5        -32.7345  -57.6770  -24.9837 H         1 GLA808      0.0647
     40 H6        -33.6938  -55.7282  -27.1491 H         1 GLA808      0.0584
     41 H7        -34.7453  -56.6902  -26.0557 H         1 GLA808      0.0584
     42 H8        -28.9253  -56.1830  -23.2736 H         1 GLA808      0.2101
     43 H9        -32.0388  -54.3053  -22.2708 H         1 GLA808      0.2100
     44 H10       -33.4841  -54.3090  -25.7863 H         1 GLA808      0.2100
     45 H11       -34.3916  -57.7351  -28.1104 H         1 GLA808      0.2095
     46 H12       -32.7724  -62.5386  -24.5818 H         1 GLC809      0.0939
     47 H13       -31.0291  -63.4126  -25.6735 H         1 GLC809      0.0671
     48 H14       -29.1848  -62.8778  -23.2963 H         1 GLC809      0.0648
     49 H15       -29.3210  -61.3938  -25.9446 H         1 GLC809      0.0647
     50 H16       -30.1211  -60.1105  -23.3010 H         1 GLC809      0.0647
     51 H17       -31.0476  -59.1266  -25.9318 H         1 GLC809      0.0587
     52 H18       -29.2570  -59.2365  -25.8389 H         1 GLC809      0.0587
     53 H19       -30.9050  -64.4767  -23.0166 H         1 GLC809      0.2101
     54 H20       -27.6488  -63.4491  -24.9531 H         1 GLC809      0.2100
     55 H21       -27.9133  -60.7718  -23.5544 H         1 GLC809      0.2100
     56 H22       -34.9515  -61.5174  -23.2284 H         1 FRU810      0.0612
     57 H23       -35.5516  -62.1841  -21.6721 H         1 FRU810      0.0612
     58 H24       -34.2678  -62.8577  -19.9872 H         1 FRU810      0.0675
     59 H25       -31.3515  -62.0183  -19.8356 H         1 FRU810      0.0648
     60 H26       -33.4411  -59.8729  -19.6182 H         1 FRU810      0.0647
     61 H27       -30.7902  -60.0379  -21.1499 H         1 FRU810      0.0584
     62 H28       -30.9263  -59.5129  -19.4374 H         1 FRU810      0.0584
     63 H29       -35.8819  -63.6152  -23.4491 H         1 FRU810      0.2096
     64 H30       -31.7950  -63.9236  -20.9596 H         1 FRU810      0.2101
     65 H31       -32.3778  -62.7609  -17.9266 H         1 FRU810      0.2100
     66 H32       -32.4429  -57.9211  -20.1741 H         1 FRU810      0.2095
@<TRIPOS>BOND
     1    1   22 1  
     2   12   30 1  
     3    5   10 1  
     4   10    1 1  
     5    5    4 1  
     6    4    3 1  
     7    3    2 1  
     8    1    2 1  
     9    4    9 1  
    10    3    8 1  
    11    2    7 1  
    12    5    6 1  
    13    6   11 1  
    14   13   12 1  
    15   12   21 1  
    16   13   14 1  
    17   13   18 1  
    18   14   15 1  
    19   14   19 1  
    20   15   16 1  
    21   15   20 1  
    22   16   17 1  
    23   16   21 1  
    24   17   22 1  
    25   24   23 1  
    26   23   29 1  
    27   24   25 1  
    28   24   30 1  
    29   24   33 1  
    30   25   26 1  
    31   25   31 1  
    32   26   27 1  
    33   26   32 1  
    34   27   28 1  
    35   27   33 1  
    36   28   34 1  
    37    1   35 1  
    38    2   36 1  
    39    3   37 1  
    40    4   38 1  
    41    5   39 1  
    42    6   40 1  
    43    6   41 1  
    44    7   42 1  
    45    8   43 1  
    46    9   44 1  
    47   11   45 1  
    48   12   46 1  
    49   13   47 1  
    50   14   48 1  
    51   15   49 1  
    52   16   50 1  
    53   17   51 1  
    54   17   52 1  
    55   18   53 1  
    56   19   54 1  
    57   20   55 1  
    58   23   56 1  
    59   23   57 1  
    60   25   58 1  
    61   26   59 1  
    62   27   60 1  
    63   28   61 1  
    64   28   62 1  
    65   29   63 1  
    66   31   64 1  
    67   32   65 1  
    68   34   66 1  
@<TRIPOS>SUBSTRUCTURE
     1 GLA808      1

