### 
### Created by X-TOOL on Mon Aug  2 16:16:05 2021
### 

@<TRIPOS>MOLECULE
6phz_ligand
   40    39     1     0     0
SMALL
GAST_HUCK


@<TRIPOS>ATOM
      1 C2         15.6140   46.4180   28.8740 C.3       1 FKS        -0.0305
      2 C3         15.3080   47.3070   30.0730 C.3       1 FKS         0.0275
      3 C4         16.6090   47.6470   30.8430 C.3       1 FKS        -0.0288
      4 C6         16.8750   50.0690   31.6610 C.3       1 FKS        -0.0337
      5 C7         15.7090   51.0940   31.6190 C.3       1 FKS        -0.0126
      6 C8         14.7510   50.9660   32.8340 C.3       1 FKS        -0.0481
      7 C9         14.7810   52.2120   33.7630 C.3       1 FKS        -0.0477
      8 C10        13.4770   52.3880   34.5650 C.3       1 FKS         0.0101
      9 C11        13.5900   53.1350   35.9490 C.3       1 FKS         0.2629
     10 C12        12.1110   53.1060   36.5230 C.3       1 FKS         0.4438
     11 F15        11.6910   51.8890   36.9240 F         1 FKS        -0.1654
     12 F16        11.2150   53.4990   35.6180 F         1 FKS        -0.1654
     13 F17        11.9740   53.9540   37.5540 F         1 FKS        -0.1654
     14 N5         16.3470   48.6400   31.9650 N.4       1 FKS         0.2271
     15 N1         14.9260   45.0770   29.0060 N.4       1 FKS         0.2187
     16 O13        14.4240   52.4930   36.8590 O.3       1 FKS        -0.3581
     17 O14        13.9510   54.4810   35.8030 O.3       1 FKS        -0.3581
     18 H1         16.7008   46.2604   28.8107 H         1 FKS         0.0815
     19 H2         15.2615   46.9148   27.9581 H         1 FKS         0.0815
     20 H3         14.6159   46.7806   30.7466 H         1 FKS         0.0369
     21 H4         14.8408   48.2391   29.7226 H         1 FKS         0.0369
     22 H5         17.3361   48.0828   30.1421 H         1 FKS         0.0816
     23 H6         17.0225   46.7226   31.2726 H         1 FKS         0.0816
     24 H7         17.5862   50.3646   32.4464 H         1 FKS         0.0814
     25 H8         17.3856   50.0644   30.6867 H         1 FKS         0.0814
     26 H9         15.1311   50.9313   30.6973 H         1 FKS         0.0317
     27 H10        16.1333   52.1088   31.6115 H         1 FKS         0.0317
     28 H11        15.0450   50.0835   33.4212 H         1 FKS         0.0267
     29 H12        13.7254   50.8323   32.4596 H         1 FKS         0.0267
     30 H13        14.9374   53.1082   33.1447 H         1 FKS         0.0267
     31 H14        15.6168   52.1038   34.4699 H         1 FKS         0.0267
     32 H15        13.0682   51.3856   34.7601 H         1 FKS         0.0320
     33 H16        12.7739   52.9549   33.9371 H         1 FKS         0.0320
     34 H17        16.7987   48.3038   32.8010 H         1 FKS         0.2013
     35 H18        15.3522   48.6931   32.1187 H         1 FKS         0.2013
     36 H19        15.1428   44.5077   28.2029 H         1 FKS         0.1994
     37 H20        13.9290   45.2148   29.0608 H         1 FKS         0.1994
     38 H21        15.2479   44.6151   29.8421 H         1 FKS         0.1994
     39 H22        14.3574   52.9210   37.7045 H         1 FKS         0.2130
     40 H23        13.3691   54.8978   35.1784 H         1 FKS         0.2130
@<TRIPOS>BOND
     1    2    1 1  
     2    1   15 1  
     3    3    2 1  
     4   14    3 1  
     5    4    5 1  
     6    4   14 1  
     7    5    6 1  
     8    6    7 1  
     9    7    8 1  
    10    8    9 1  
    11    9   10 1  
    12    9   16 1  
    13    9   17 1  
    14   10   11 1  
    15   10   12 1  
    16   10   13 1  
    17    1   18 1  
    18    1   19 1  
    19    2   20 1  
    20    2   21 1  
    21    3   22 1  
    22    3   23 1  
    23    4   24 1  
    24    4   25 1  
    25    5   26 1  
    26    5   27 1  
    27    6   28 1  
    28    6   29 1  
    29    7   30 1  
    30    7   31 1  
    31    8   32 1  
    32    8   33 1  
    33   14   34 1  
    34   14   35 1  
    35   15   36 1  
    36   15   37 1  
    37   15   38 1  
    38   16   39 1  
    39   17   40 1  
@<TRIPOS>SUBSTRUCTURE
     1 FKS         1

