### 
### Created by X-TOOL on Mon Aug  2 16:16:06 2021
### 

@<TRIPOS>MOLECULE
6pi1_ligand
   47    47     1     0     0
SMALL
GAST_HUCK


@<TRIPOS>ATOM
      1 O23        16.6160  110.2080   21.3920 O.2       1 B3N        -0.3909
      2 C13        16.0520  111.2260   21.0270 C.2       1 B3N         0.1951
      3 C14        16.6330  112.5740   21.3280 C.ar      1 B3N         0.0361
      4 C15        17.7250  112.6900   22.1880 C.ar      1 B3N        -0.0535
      5 C16        18.3090  113.9210   22.4880 C.ar      1 B3N        -0.0381
      6 C17        17.8220  115.1140   21.9300 C.ar      1 B3N         0.0452
      7 N20        18.4130  116.3740   22.2120 N.pl3     1 B3N        -0.3121
      8 C22        19.5580  116.5490   23.1110 C.3       1 B3N         0.0162
      9 C21        17.9150  117.6010   21.5830 C.3       1 B3N         0.0162
     10 C18        16.7290  114.9890   21.0560 C.ar      1 B3N        -0.0381
     11 C19        16.1550  113.7540   20.7690 C.ar      1 B3N        -0.0535
     12 N12        14.8510  111.1370   20.2950 N.am      1 B3N        -0.2881
     13 C10        14.2050  109.8860   19.9270 C.3       1 B3N         0.0301
     14 C9         14.6280  109.4620   18.5110 C.3       1 B3N        -0.0328
     15 C8         15.8330  108.5480   18.4590 C.3       1 B3N        -0.0511
     16 C7         15.9480  107.8180   17.1310 C.3       1 B3N        -0.0509
     17 C6         16.0180  108.7770   16.0060 C.3       1 B3N        -0.0361
     18 C5         16.0540  108.1050   14.6770 C.3       1 B3N         0.0389
     19 C1         17.4020  107.4920   14.4630 C.2       1 B3N         0.1988
     20 O2         18.4330  108.1080   14.2230 O.2       1 B3N        -0.3970
     21 N3         17.4110  106.1120   14.5590 N.am      1 B3N        -0.1642
     22 O4         18.6010  105.5550   14.3630 O.3       1 B3N        -0.2717
     23 H1         18.1339  111.7929   22.6387 H         1 B3N         0.0636
     24 H2         19.1549  113.9572   23.1648 H         1 B3N         0.0530
     25 H3         19.8251  117.6149   23.1612 H         1 B3N         0.0480
     26 H4         20.4147  115.9739   22.7299 H         1 B3N         0.0480
     27 H5         19.2932  116.1896   24.1163 H         1 B3N         0.0480
     28 H6         17.0612  117.3593   20.9329 H         1 B3N         0.0480
     29 H7         18.7160  118.0562   20.9820 H         1 B3N         0.0480
     30 H8         17.5940  118.3082   22.3620 H         1 B3N         0.0480
     31 H9         16.3212  115.8798   20.5920 H         1 B3N         0.0530
     32 H10        15.3110  113.7108   20.0901 H         1 B3N         0.0636
     33 H11        14.4138  111.9899   20.0096 H         1 B3N         0.1840
     34 H12        13.1135  110.0196   19.9546 H         1 B3N         0.0519
     35 H13        14.4968  109.1030   20.6423 H         1 B3N         0.0519
     36 H14        14.8619  110.3705   17.9366 H         1 B3N         0.0285
     37 H15        13.7811  108.9396   18.0422 H         1 B3N         0.0285
     38 H16        15.7476  107.8042   19.2649 H         1 B3N         0.0266
     39 H17        16.7406  109.1506   18.6108 H         1 B3N         0.0266
     40 H18        15.0685  107.1708   16.9984 H         1 B3N         0.0267
     41 H19        16.8592  107.2019   17.1363 H         1 B3N         0.0267
     42 H20        16.9284  109.3842   16.1177 H         1 B3N         0.0289
     43 H21        15.1341  109.4306   16.0456 H         1 B3N         0.0289
     44 H22        15.8583  108.8448   13.8869 H         1 B3N         0.0502
     45 H23        15.2847  107.3195   14.6426 H         1 B3N         0.0502
     46 H24        16.5897  105.5779   14.7594 H         1 B3N         0.2216
     47 H25        19.2132  105.8820   15.0116 H         1 B3N         0.2490
@<TRIPOS>BOND
     1    1    2 2  
     2    2    3 1  
     3    2   12 am 
     4    3    4 ar 
     5    3   11 ar 
     6    4    5 ar 
     7    5    6 ar 
     8    6    7 1  
     9    6   10 ar 
    10    7    8 1  
    11    7    9 1  
    12   10   11 ar 
    13   12   13 1  
    14   13   14 1  
    15   14   15 1  
    16   15   16 1  
    17   16   17 1  
    18   17   18 1  
    19   18   19 1  
    20   19   20 2  
    21   19   21 am 
    22   21   22 1  
    23    4   23 1  
    24    5   24 1  
    25    8   25 1  
    26    8   26 1  
    27    8   27 1  
    28    9   28 1  
    29    9   29 1  
    30    9   30 1  
    31   10   31 1  
    32   11   32 1  
    33   12   33 1  
    34   13   34 1  
    35   13   35 1  
    36   14   36 1  
    37   14   37 1  
    38   15   38 1  
    39   15   39 1  
    40   16   40 1  
    41   16   41 1  
    42   17   42 1  
    43   17   43 1  
    44   18   44 1  
    45   18   45 1  
    46   21   46 1  
    47   22   47 1  
@<TRIPOS>SUBSTRUCTURE
     1 B3N         1

