### 
### Created by X-TOOL on Mon Aug  2 16:16:06 2021
### 

@<TRIPOS>MOLECULE
6pi5_ligand
   17    18     1     0     0
SMALL
GAST_HUCK


@<TRIPOS>ATOM
      1 N9        -10.7120    2.2990   -2.8950 N.2       1 GUN        -0.1912
      2 C8        -10.0530    3.1140   -2.0410 C.2       1 GUN         0.1680
      3 N7        -10.4960    4.3620   -2.0650 N.pl3     1 GUN        -0.1621
      4 C5        -11.5550    4.3350   -2.9360 C.2       1 GUN         0.3116
      5 C6        -12.4560    5.3240   -3.3020 C.2       1 GUN         0.3074
      6 O6        -12.4460    6.4920   -2.9240 O.2       1 GUN        -0.3390
      7 N1        -13.4860    4.8530   -4.1480 N.am      1 GUN        -0.2419
      8 C2        -13.5550    3.5120   -4.5580 C.cat     1 GUN         0.1980
      9 N2        -14.5160    3.1040   -5.3970 N.pl3     1 GUN        -0.3338
     10 N3        -12.6750    2.6140   -4.2480 N.pl3     1 GUN        -0.2179
     11 C4        -11.7190    3.0150   -3.4020 C.2       1 GUN         0.2740
     12 H1         -9.2403    2.7784   -1.3985 H         1 GUN         0.1747
     13 H2        -10.1276    5.1716   -1.5457 H         1 GUN         0.2720
     14 H3        -14.1859    5.4937   -4.4636 H         1 GUN         0.1824
     15 H4        -14.5578    2.1179   -5.6917 H         1 GUN         0.1770
     16 H5        -15.2132    3.7763   -5.7475 H         1 GUN         0.1770
     17 H6        -12.7086    1.6567   -4.6267 H         1 GUN         0.2436
@<TRIPOS>BOND
     1    1    2 2  
     2    1   11 1  
     3    2    3 1  
     4    3    4 1  
     5    4    5 1  
     6    4   11 2  
     7    5    6 2  
     8    5    7 am 
     9    7    8 ar 
    10    8    9 ar 
    11    8   10 ar 
    12   10   11 1  
    13    2   12 1  
    14    3   13 1  
    15    7   14 1  
    16    9   15 1  
    17    9   16 1  
    18   10   17 1  
@<TRIPOS>SUBSTRUCTURE
     1 GUN         1

