### 
### Created by X-TOOL on Mon Aug  2 16:16:06 2021
### 

@<TRIPOS>MOLECULE
6pi6_ligand
   31    31     1     0     0
SMALL
GAST_HUCK


@<TRIPOS>ATOM
      1 C13       -15.4690    2.0140   -7.5250 C.3       1 OKM        -0.0127
      2 C01        -8.6080    1.1180   -2.1030 C.3       1 OKM        -0.0154
      3 C02        -9.4760    2.3940   -2.2020 C.3       1 OKM         0.1092
      4 N03       -10.6200    2.1470   -3.0370 N.pl3     1 OKM        -0.2082
      5 C04       -11.5210    3.0570   -3.4080 C.cat     1 OKM         0.4128
      6 N05       -11.4450    4.3880   -2.8860 N.am      1 OKM        -0.1877
      7 C06       -12.4130    5.3030   -3.3370 C.2       1 OKM         0.2637
      8 O07       -12.4210    6.4280   -2.9120 O.2       1 OKM        -0.4011
      9 N08       -13.4980    4.9150   -4.1310 N.am      1 OKM        -0.1877
     10 C09       -13.5270    3.5730   -4.6660 C.cat     1 OKM         0.4130
     11 N10       -12.5790    2.6360   -4.1990 N.pl3     1 OKM        -0.1447
     12 N11       -14.5830    3.1870   -5.4740 N.pl3     1 OKM        -0.2058
     13 C12       -14.7810    1.8880   -6.1180 C.3       1 OKM         0.1168
     14 C14       -15.6180    1.0720   -5.1840 C.3       1 OKM        -0.0127
     15 H1        -15.5936    1.0128   -7.9632 H         1 OKM         0.0283
     16 H2        -14.8407    2.6282   -8.1868 H         1 OKM         0.0283
     17 H3        -16.4544    2.4891   -7.4101 H         1 OKM         0.0283
     18 H4         -7.7359    1.3166   -1.4627 H         1 OKM         0.0281
     19 H5         -8.2667    0.8278   -3.1076 H         1 OKM         0.0281
     20 H6         -9.2039    0.3020   -1.6682 H         1 OKM         0.0281
     21 H7         -8.8777    3.2088   -2.6357 H         1 OKM         0.0897
     22 H8         -9.8148    2.6830   -1.1962 H         1 OKM         0.0897
     23 H9        -10.7551    1.1845   -3.3778 H         1 OKM         0.3761
     24 H10       -10.7372    4.6544   -2.2318 H         1 OKM         0.1881
     25 H11       -14.2409    5.5557   -4.3249 H         1 OKM         0.1881
     26 H12       -12.6736    1.6405   -4.4459 H         1 OKM         0.4054
     27 H13       -15.3124    3.8949   -5.6408 H         1 OKM         0.3763
     28 H14       -13.8042    1.4008   -6.2543 H         1 OKM         0.0931
     29 H15       -15.1145    0.9997   -4.2087 H         1 OKM         0.0283
     30 H16       -15.7558    0.0635   -5.6011 H         1 OKM         0.0283
     31 H17       -16.5989    1.5529   -5.0555 H         1 OKM         0.0283
@<TRIPOS>BOND
     1   13    1 1  
     2    3    2 1  
     3    4    3 1  
     4    5    4 ar 
     5    5    6 ar 
     6   11    5 ar 
     7    7    6 am 
     8    7    8 2  
     9    9    7 am 
    10   10    9 ar 
    11   10   11 ar 
    12   12   10 ar 
    13   12   13 1  
    14   13   14 1  
    15    1   15 1  
    16    1   16 1  
    17    1   17 1  
    18    2   18 1  
    19    2   19 1  
    20    2   20 1  
    21    3   21 1  
    22    3   22 1  
    23    4   23 1  
    24    6   24 1  
    25    9   25 1  
    26   11   26 1  
    27   12   27 1  
    28   13   28 1  
    29   14   29 1  
    30   14   30 1  
    31   14   31 1  
@<TRIPOS>SUBSTRUCTURE
     1 OKM         1

