### 
### Created by X-TOOL on Mon Aug  2 16:16:07 2021
### 

@<TRIPOS>MOLECULE
6pia_ligand
   37    36     1     0     0
SMALL
GAST_HUCK


@<TRIPOS>ATOM
      1 C2        -17.8840   42.7170  -11.8660 C.3       1 XS6        -0.0305
      2 C3        -16.3360   42.7070  -11.7320 C.3       1 XS6         0.0275
      3 C4        -15.5760   42.1260  -12.9440 C.3       1 XS6        -0.0288
      4 C6        -15.6610   39.6010  -12.7740 C.3       1 XS6        -0.0337
      5 C7        -15.0830   38.5340  -13.7540 C.3       1 XS6        -0.0124
      6 C8        -15.8320   38.3610  -15.0930 C.3       1 XS6        -0.0462
      7 C9        -15.1130   37.4380  -16.0890 C.3       1 XS6        -0.0359
      8 C10       -14.0730   38.1050  -16.9970 C.3       1 XS6         0.0389
      9 C11       -13.0840   37.2400  -17.7660 C.2       1 XS6         0.1988
     10 N1        -18.3950   43.9000  -12.5570 N.4       1 XS6         0.2187
     11 N5        -16.2000   40.8360  -13.4530 N.4       1 XS6         0.2271
     12 N13       -13.1410   35.8920  -17.7660 N.am      1 XS6        -0.1642
     13 O12       -12.1760   37.8240  -18.4360 O.2       1 XS6        -0.3970
     14 O14       -12.2120   35.2790  -18.4870 O.3       1 XS6        -0.2717
     15 H1        -18.3224   42.6846  -10.8577 H         1 XS6         0.0815
     16 H2        -18.1920   41.8234  -12.4286 H         1 XS6         0.0815
     17 H3        -16.0747   42.1080  -10.8472 H         1 XS6         0.0369
     18 H4        -16.0002   43.7441  -11.5849 H         1 XS6         0.0369
     19 H5        -14.5371   41.9224  -12.6455 H         1 XS6         0.0816
     20 H6        -15.5855   42.8678  -13.7561 H         1 XS6         0.0816
     21 H7        -14.8595   39.9076  -12.0858 H         1 XS6         0.0814
     22 H8        -16.4781   39.1374  -12.2019 H         1 XS6         0.0814
     23 H9        -15.0922   37.5633  -13.2366 H         1 XS6         0.0317
     24 H10       -14.0453   38.8171  -13.9842 H         1 XS6         0.0317
     25 H11       -15.9458   39.3515  -15.5576 H         1 XS6         0.0269
     26 H12       -16.8255   37.9382  -14.8829 H         1 XS6         0.0269
     27 H13       -15.8770   36.9791  -16.7337 H         1 XS6         0.0289
     28 H14       -14.6014   36.6539  -15.5116 H         1 XS6         0.0289
     29 H15       -13.4809   38.7809  -16.3625 H         1 XS6         0.0502
     30 H16       -14.6289   38.6940  -17.7413 H         1 XS6         0.0502
     31 H17       -19.4002   43.8487  -12.6124 H         1 XS6         0.1994
     32 H18       -18.0088   43.9388  -13.4873 H         1 XS6         0.1994
     33 H19       -18.1284   44.7280  -12.0477 H         1 XS6         0.1994
     34 H20       -16.0188   40.7618  -14.4418 H         1 XS6         0.2013
     35 H21       -17.1948   40.8785  -13.2959 H         1 XS6         0.2013
     36 H22       -13.8380   35.3882  -17.2558 H         1 XS6         0.2216
     37 H23       -12.3338   34.3389  -18.4250 H         1 XS6         0.2490
@<TRIPOS>BOND
     1    2    1 1  
     2    1   10 1  
     3    3    2 1  
     4   11    3 1  
     5    4    5 1  
     6    4   11 1  
     7    5    6 1  
     8    6    7 1  
     9    7    8 1  
    10    8    9 1  
    11    9   12 am 
    12    9   13 2  
    13   12   14 1  
    14    1   15 1  
    15    1   16 1  
    16    2   17 1  
    17    2   18 1  
    18    3   19 1  
    19    3   20 1  
    20    4   21 1  
    21    4   22 1  
    22    5   23 1  
    23    5   24 1  
    24    6   25 1  
    25    6   26 1  
    26    7   27 1  
    27    7   28 1  
    28    8   29 1  
    29    8   30 1  
    30   10   31 1  
    31   10   32 1  
    32   10   33 1  
    33   11   34 1  
    34   11   35 1  
    35   12   36 1  
    36   14   37 1  
@<TRIPOS>SUBSTRUCTURE
     1 XS6         1

