### 
### Created by X-TOOL on Mon Aug  2 16:16:07 2021
### 

@<TRIPOS>MOLECULE
6pic_ligand
   25    24     1     0     0
SMALL
GAST_HUCK


@<TRIPOS>ATOM
      1 C2         43.0700  -21.3790   35.4330 C.3       1 MOL        -0.0354
      2 C3         43.9420  -22.6150   35.7360 C.3       1 MOL        -0.0125
      3 C4         43.2960  -23.6030   36.7550 C.3       1 MOL        -0.0462
      4 C5         44.2680  -24.6710   37.3420 C.3       1 MOL        -0.0359
      5 C6         45.1810  -25.4030   36.3010 C.3       1 MOL         0.0389
      6 C7         46.2440  -26.3470   36.8680 C.2       1 MOL         0.1988
      7 N1         42.0180  -21.6910   34.3460 N.4       1 MOL         0.2185
      8 N8         46.1820  -26.8210   38.1590 N.am      1 MOL        -0.1642
      9 O10        47.2010  -26.6810   36.1200 O.2       1 MOL        -0.3970
     10 O9         47.2140  -27.6710   38.5620 O.3       1 MOL        -0.2717
     11 H1         43.7164  -20.5609   35.0824 H         1 MOL         0.0813
     12 H2         42.5537  -21.0696   36.3537 H         1 MOL         0.0813
     13 H3         44.9021  -22.2703   36.1474 H         1 MOL         0.0317
     14 H4         44.1193  -23.1544   34.7939 H         1 MOL         0.0317
     15 H5         42.4760  -24.1307   36.2461 H         1 MOL         0.0269
     16 H6         42.8903  -23.0144   37.5910 H         1 MOL         0.0269
     17 H7         43.6630  -25.4327   37.8556 H         1 MOL         0.0289
     18 H8         44.9215  -24.1691   38.0707 H         1 MOL         0.0289
     19 H9         45.6991  -24.6326   35.7111 H         1 MOL         0.0502
     20 H10        44.5283  -25.9931   35.6409 H         1 MOL         0.0502
     21 H11        41.4639  -20.8678   34.1686 H         1 MOL         0.1994
     22 H12        41.4190  -22.4374   34.6625 H         1 MOL         0.1994
     23 H13        42.4845  -21.9713   33.4975 H         1 MOL         0.1994
     24 H14        45.4365  -26.5696   38.7763 H         1 MOL         0.2216
     25 H15        47.0712  -27.9355   39.4632 H         1 MOL         0.2490
@<TRIPOS>BOND
     1    1    2 1  
     2    1    7 1  
     3    2    3 1  
     4    3    4 1  
     5    4    5 1  
     6    5    6 1  
     7    6    8 am 
     8    6    9 2  
     9    8   10 1  
    10    1   11 1  
    11    1   12 1  
    12    2   13 1  
    13    2   14 1  
    14    3   15 1  
    15    3   16 1  
    16    4   17 1  
    17    4   18 1  
    18    5   19 1  
    19    5   20 1  
    20    7   21 1  
    21    7   22 1  
    22    7   23 1  
    23    8   24 1  
    24   10   25 1  
@<TRIPOS>SUBSTRUCTURE
     1 MOL         1

