### 
### Created by X-TOOL on Mon Aug  2 16:16:08 2021
### 

@<TRIPOS>MOLECULE
6pid_ligand
   31    30     1     0     0
SMALL
GAST_HUCK


@<TRIPOS>ATOM
      1 C02        44.6290   43.0690   23.4790 C.3       1 OKS        -0.0354
      2 C03        44.2420   42.5690   24.9150 C.3       1 OKS        -0.0126
      3 C04        42.9220   41.7110   24.9130 C.3       1 OKS        -0.0482
      4 C05        42.8970   40.5350   25.9400 C.3       1 OKS        -0.0527
      5 C06        43.0560   39.0970   25.3060 C.3       1 OKS        -0.0510
      6 C07        42.5850   37.9180   26.2160 C.3       1 OKS        -0.0361
      7 C08        43.7180   36.9340   26.6070 C.3       1 OKS         0.0389
      8 C09        43.4590   35.9460   27.7470 C.2       1 OKS         0.1988
      9 N01        46.0710   43.5930   23.3840 N.4       1 OKS         0.2185
     10 N10        42.7430   34.7900   27.5950 N.am      1 OKS        -0.1642
     11 O11        42.5870   33.9500   28.7320 O.3       1 OKS        -0.2717
     12 O12        43.9570   36.2580   28.8890 O.2       1 OKS        -0.3970
     13 H1         43.9434   43.8812   23.1958 H         1 OKS         0.0813
     14 H2         44.5153   42.2311   22.7754 H         1 OKS         0.0813
     15 H3         44.0947   43.4431   25.5663 H         1 OKS         0.0317
     16 H4         45.0638   41.9528   25.3085 H         1 OKS         0.0317
     17 H5         42.7920   41.2874   23.9062 H         1 OKS         0.0267
     18 H6         42.0795   42.3806   25.1407 H         1 OKS         0.0267
     19 H7         41.9365   40.5685   26.4750 H         1 OKS         0.0265
     20 H8         43.7199   40.6868   26.6539 H         1 OKS         0.0265
     21 H9         44.1197   38.9431   25.0717 H         1 OKS         0.0267
     22 H10        42.4678   39.0668   24.3770 H         1 OKS         0.0267
     23 H11        41.8077   37.3550   25.6786 H         1 OKS         0.0289
     24 H12        42.1601   38.3408   27.1383 H         1 OKS         0.0289
     25 H13        44.5910   37.5392   26.8925 H         1 OKS         0.0502
     26 H14        43.9590   36.3423   25.7116 H         1 OKS         0.0502
     27 H15        46.2564   43.8975   22.4411 H         1 OKS         0.1994
     28 H16        46.7131   42.8565   23.6316 H         1 OKS         0.1994
     29 H17        46.1891   44.3686   24.0169 H         1 OKS         0.1994
     30 H18        42.3422   34.5436   26.7126 H         1 OKS         0.2216
     31 H19        42.0739   33.1871   28.4927 H         1 OKS         0.2490
@<TRIPOS>BOND
     1    1    2 1  
     2    1    9 1  
     3    2    3 1  
     4    3    4 1  
     5    4    5 1  
     6    5    6 1  
     7    6    7 1  
     8    7    8 1  
     9    8   10 am 
    10    8   12 2  
    11   10   11 1  
    12    1   13 1  
    13    1   14 1  
    14    2   15 1  
    15    2   16 1  
    16    3   17 1  
    17    3   18 1  
    18    4   19 1  
    19    4   20 1  
    20    5   21 1  
    21    5   22 1  
    22    6   23 1  
    23    6   24 1  
    24    7   25 1  
    25    7   26 1  
    26    9   27 1  
    27    9   28 1  
    28    9   29 1  
    29   10   30 1  
    30   11   31 1  
@<TRIPOS>SUBSTRUCTURE
     1 OKS         1

