### 
### Created by X-TOOL on Mon Aug  2 16:16:08 2021
### 

@<TRIPOS>MOLECULE
6pii_ligand
   17    18     1     0     0
SMALL
GAST_HUCK


@<TRIPOS>ATOM
      1 N9          3.2420   33.8760  122.9930 N.2       1 GUN        -0.1912
      2 C8          2.5660   34.7440  122.2020 C.2       1 GUN         0.1680
      3 N7          3.0510   35.9730  122.2140 N.pl3     1 GUN        -0.1621
      4 C5          4.1420   35.8870  123.0670 C.2       1 GUN         0.3116
      5 C6          5.0320   36.8810  123.4890 C.2       1 GUN         0.3074
      6 O6          5.0070   38.0650  123.1640 O.2       1 GUN        -0.3390
      7 N1          6.0240   36.3780  124.3660 N.am      1 GUN        -0.2419
      8 C2          6.0890   35.0360  124.7520 C.cat     1 GUN         0.1980
      9 N2          7.0750   34.6170  125.5620 N.pl3     1 GUN        -0.3338
     10 N3          5.2130   34.1130  124.3820 N.pl3     1 GUN        -0.2179
     11 C4          4.2600   34.5710  123.5410 C.2       1 GUN         0.2740
     12 H1          1.6998   34.4543  121.6090 H         1 GUN         0.1747
     13 H2          2.7016   36.8000  121.7091 H         1 GUN         0.2720
     14 H3          6.7090   37.0117  124.7254 H         1 GUN         0.1824
     15 H4          7.1227   33.6282  125.8463 H         1 GUN         0.1770
     16 H5          7.7834   35.2845  125.8989 H         1 GUN         0.1770
     17 H6          5.2549   33.1361  124.7059 H         1 GUN         0.2436
@<TRIPOS>BOND
     1    1    2 2  
     2    1   11 1  
     3    2    3 1  
     4    3    4 1  
     5    4    5 1  
     6    4   11 2  
     7    5    6 2  
     8    5    7 am 
     9    7    8 ar 
    10    8    9 ar 
    11    8   10 ar 
    12   10   11 1  
    13    2   12 1  
    14    3   13 1  
    15    7   14 1  
    16    9   15 1  
    17    9   16 1  
    18   10   17 1  
@<TRIPOS>SUBSTRUCTURE
     1 GUN         1

