### 
### Created by X-TOOL on Mon Aug  2 16:11:24 2021
### 

@<TRIPOS>MOLECULE
6pka_ligand
  105   111     1     0     0
SMALL
GAST_HUCK


@<TRIPOS>ATOM
      1 C48       -18.5260   67.9380  -40.3930 C.2       1 OO1         0.2877
      2 O49       -19.4660   68.6290  -40.7440 O.2       1 OO1        -0.3910
      3 N50       -17.7160   67.2300  -41.3110 N.am      1 OO1        -0.2233
      4 C51       -17.8410   67.3160  -42.7480 C.ar      1 OO1         0.0599
      5 C52       -17.8630   66.1610  -43.5060 C.ar      1 OO1        -0.0477
      6 C53       -17.9090   66.2750  -44.8900 C.ar      1 OO1        -0.0737
      7 C54       -17.8990   67.5240  -45.4980 C.ar      1 OO1        -0.0608
      8 C55       -17.9500   67.6110  -47.0070 C.3       1 OO1        -0.0382
      9 C56       -17.8580   68.6790  -44.7410 C.ar      1 OO1        -0.0737
     10 C57       -17.8050   68.5790  -43.3400 C.ar      1 OO1        -0.0477
     11 C         -18.2700   69.7220  -37.9100 C.2       1 OO1         0.2059
     12 N         -18.1450   67.7140  -39.0320 N.am      1 OO1        -0.2451
     13 O         -17.4170   70.0120  -37.1300 O.2       1 OO1        -0.3942
     14 F1        -22.4380   64.8470  -35.5370 F         1 OO1        -0.1863
     15 F2        -18.6650   62.7340  -37.3200 F         1 OO1        -0.1863
     16 CA        -18.8260   68.2980  -37.9570 C.3       1 OO1         0.1412
     17 CB        -18.5070   67.5540  -36.6820 C.3       1 OO1         0.0195
     18 CG        -19.2590   66.2090  -36.5780 C.ar      1 OO1        -0.0423
     19 CZ        -20.5880   63.7280  -36.4100 C.ar      1 OO1        -0.0019
     20 CD1       -20.5430   66.1290  -36.0750 C.ar      1 OO1        -0.0308
     21 CD2       -18.6460   65.0430  -36.9960 C.ar      1 OO1        -0.0308
     22 CE1       -21.2070   64.8930  -36.0150 C.ar      1 OO1         0.1242
     23 CE2       -19.3050   63.8210  -36.8960 C.ar      1 OO1         0.1242
     24 N         -18.7720   70.7000  -38.8530 N.am      1 OO1        -0.2589
     25 CA        -18.2870   72.0240  -38.8790 C.3       1 OO1         0.1884
     26 C         -19.4000   73.0480  -38.5930 C.2       1 OO1         0.2370
     27 O         -20.5140   72.8810  -39.0000 O.2       1 OO1        -0.3824
     28 CB        -17.7510   72.3130  -40.2550 C.3       1 OO1         0.2107
     29 OG        -16.5530   71.5740  -40.2830 O.3       1 OO1        -0.2905
     30 N         -19.0580   74.2270  -37.8420 N.am      1 OO1        -0.2124
     31 CA        -17.8550   74.4780  -37.3610 C.3       1 OO1         0.1551
     32 C         -17.6010   73.5670  -36.1630 C.2       1 OO1         0.2135
     33 O         -18.4900   73.1370  -35.4660 O.2       1 OO1        -0.3934
     34 CB        -17.9120   75.9430  -36.7460 C.3       1 OO1        -0.0019
     35 CG        -19.4010   76.1260  -36.4920 C.2       1 OO1        -0.0883
     36 CD        -20.0410   75.4330  -37.4420 C.2       1 OO1         0.0154
     37 C         -14.1930   72.3900  -36.8330 C.2       1 OO1         0.2041
     38 N         -16.2600   73.1230  -35.7860 N.am      1 OO1        -0.2493
     39 O         -12.9890   72.5030  -36.9100 O.2       1 OO1        -0.3944
     40 CA        -15.0290   73.5610  -36.4410 C.3       1 OO1         0.1337
     41 CB        -14.2530   74.4010  -35.4260 C.3       1 OO1        -0.0121
     42 CD        -15.4650   73.1980  -33.5490 C.3       1 OO1        -0.0321
     43 CE        -16.1470   72.3150  -34.5690 C.3       1 OO1         0.0368
     44 CG        -14.1790   73.7790  -34.0540 C.3       1 OO1        -0.0470
     45 N         -14.8100   71.1120  -37.1150 N.am      1 OO1        -0.2640
     46 CA        -13.9720   69.9900  -37.3800 C.3       1 OO1         0.1282
     47 C         -14.3800   69.1260  -38.5330 C.2       1 OO1         0.2043
     48 O         -14.6410   67.9530  -38.3850 O.2       1 OO1        -0.3943
     49 CB        -13.9810   69.2260  -36.0620 C.3       1 OO1        -0.0244
     50 C         -15.2850   72.1800  -39.9740 C.3       1 OO1         0.3121
     51 N         -14.3740   69.7110  -39.8100 N.am      1 OO1        -0.2602
     52 O         -15.1460   73.3320  -39.6260 O.3       1 OO1        -0.3408
     53 CA        -14.0410   71.2670  -40.1700 C.3       1 OO1         0.1267
     54 CB        -13.6720   71.2460  -41.4590 C.3       1 OO1        -0.0176
     55 CD        -14.7260   69.0500  -41.1570 C.3       1 OO1         0.0372
     56 CE        -13.8790   69.5360  -43.3690 C.3       1 OO1        -0.0605
     57 CG        -14.5700   70.0310  -42.1220 C.3       1 OO1        -0.0211
     58 OXT       -16.3980   71.7430  -40.1690 O.3       1 OO1        -0.2905
     59 H1        -17.0082   66.6287  -40.9402 H         1 OO1         0.2232
     60 H2        -17.8448   65.1867  -43.0311 H         1 OO1         0.0485
     61 H3        -17.9531   65.3808  -45.5011 H         1 OO1         0.0520
     62 H4        -17.9342   68.6671  -47.3141 H         1 OO1         0.0362
     63 H5        -18.8737   67.1372  -47.3706 H         1 OO1         0.0362
     64 H6        -17.0791   67.0920  -47.4339 H         1 OO1         0.0362
     65 H7        -17.8666   69.6506  -45.2217 H         1 OO1         0.0520
     66 H8        -17.7371   69.4710  -42.7277 H         1 OO1         0.0485
     67 H9        -17.3642   67.1189  -38.8418 H         1 OO1         0.1885
     68 H10       -19.9129   68.3019  -38.1262 H         1 OO1         0.0821
     69 H11       -18.7905   68.1837  -35.8258 H         1 OO1         0.0472
     70 H12       -17.4253   67.3567  -36.6499 H         1 OO1         0.0472
     71 H13       -21.0940   62.7719  -36.3403 H         1 OO1         0.0532
     72 H14       -21.0411   67.0257  -35.7245 H         1 OO1         0.0508
     73 H15       -17.6430   65.0804  -37.4054 H         1 OO1         0.0508
     74 H16       -19.4818   70.4291  -39.5033 H         1 OO1         0.1885
     75 H17       -17.4879   72.1322  -38.1309 H         1 OO1         0.0857
     76 H18       -18.3137   72.9177  -40.9814 H         1 OO1         0.0965
     77 H19       -17.0780   74.3733  -38.1325 H         1 OO1         0.0883
     78 H20       -17.5342   76.6902  -37.4594 H         1 OO1         0.0385
     79 H21       -17.3370   76.0056  -35.8104 H         1 OO1         0.0385
     80 H22       -19.8575   76.7078  -35.6926 H         1 OO1         0.0218
     81 H23       -21.0252   75.6435  -37.8579 H         1 OO1         0.0803
     82 H24       -15.2690   74.1601  -37.3318 H         1 OO1         0.0802
     83 H25       -14.7455   75.3805  -35.3370 H         1 OO1         0.0312
     84 H26       -13.2279   74.5386  -35.8005 H         1 OO1         0.0312
     85 H27       -15.2519   72.5989  -32.6514 H         1 OO1         0.0285
     86 H28       -16.1445   74.0224  -33.2868 H         1 OO1         0.0285
     87 H29       -15.5436   71.4156  -34.7612 H         1 OO1         0.0524
     88 H30       -17.1444   72.0182  -34.2125 H         1 OO1         0.0524
     89 H31       -13.8541   74.5549  -33.3452 H         1 OO1         0.0268
     90 H32       -13.4303   72.9738  -34.0848 H         1 OO1         0.0268
     91 H33       -15.8055   71.0177  -37.1238 H         1 OO1         0.1883
     92 H34       -12.9542   70.3503  -37.5901 H         1 OO1         0.0797
     93 H35       -13.3551   68.3263  -36.1555 H         1 OO1         0.0277
     94 H36       -15.0119   68.9315  -35.8159 H         1 OO1         0.0277
     95 H37       -13.5825   69.8685  -35.2630 H         1 OO1         0.0277
     96 H38       -15.6307   73.4796  -38.8224 H         1 OO1         0.2152
     97 H39       -13.2190   71.6370  -39.5395 H         1 OO1         0.0639
     98 H40       -12.5972   71.0316  -41.5530 H         1 OO1         0.0293
     99 H41       -13.8981   72.2068  -41.9445 H         1 OO1         0.0293
    100 H42       -15.7651   68.6893  -41.1446 H         1 OO1         0.0525
    101 H43       -14.0477   68.2074  -41.3569 H         1 OO1         0.0525
    102 H44       -13.7881   70.3617  -44.0901 H         1 OO1         0.0233
    103 H45       -14.4683   68.7219  -43.8162 H         1 OO1         0.0233
    104 H46       -12.8769   69.1637  -43.1097 H         1 OO1         0.0233
    105 H47       -15.5626   70.4143  -42.4011 H         1 OO1         0.0318
@<TRIPOS>BOND
     1    1    2 2  
     2    1    3 am 
     3   12    1 am 
     4    3    4 1  
     5    4    5 ar 
     6    4   10 ar 
     7    5    6 ar 
     8    6    7 ar 
     9    7    8 1  
    10    9    7 ar 
    11   10    9 ar 
    12   11   13 2  
    13   11   16 1  
    14   24   11 am 
    15   16   12 1  
    16   22   14 1  
    17   23   15 1  
    18   16   17 1  
    19   17   18 1  
    20   18   20 ar 
    21   18   21 ar 
    22   22   19 ar 
    23   23   19 ar 
    24   20   22 ar 
    25   21   23 ar 
    26   25   24 1  
    27   26   25 1  
    28   25   28 1  
    29   26   27 2  
    30   30   26 am 
    31   28   29 1  
    32   28   58 1  
    33   29   50 1  
    34   31   30 1  
    35   30   36 1  
    36   32   31 1  
    37   31   34 1  
    38   32   33 2  
    39   38   32 am 
    40   34   35 1  
    41   35   36 2  
    42   37   39 2  
    43   40   37 1  
    44   37   45 am 
    45   38   40 1  
    46   38   43 1  
    47   40   41 1  
    48   41   44 1  
    49   43   42 1  
    50   42   44 1  
    51   45   46 1  
    52   46   47 1  
    53   46   49 1  
    54   47   48 2  
    55   47   51 am 
    56   50   52 1  
    57   50   53 1  
    58   50   58 1  
    59   51   53 1  
    60   51   55 1  
    61   53   54 1  
    62   54   57 1  
    63   55   57 1  
    64   57   56 1  
    65    3   59 1  
    66    5   60 1  
    67    6   61 1  
    68    8   62 1  
    69    8   63 1  
    70    8   64 1  
    71    9   65 1  
    72   10   66 1  
    73   12   67 1  
    74   16   68 1  
    75   17   69 1  
    76   17   70 1  
    77   19   71 1  
    78   20   72 1  
    79   21   73 1  
    80   24   74 1  
    81   25   75 1  
    82   28   76 1  
    83   31   77 1  
    84   34   78 1  
    85   34   79 1  
    86   35   80 1  
    87   36   81 1  
    88   40   82 1  
    89   41   83 1  
    90   41   84 1  
    91   42   85 1  
    92   42   86 1  
    93   43   87 1  
    94   43   88 1  
    95   44   89 1  
    96   44   90 1  
    97   45   91 1  
    98   46   92 1  
    99   49   93 1  
   100   49   94 1  
   101   49   95 1  
   102   52   96 1  
   103   53   97 1  
   104   54   98 1  
   105   54   99 1  
   106   55  100 1  
   107   55  101 1  
   108   56  102 1  
   109   56  103 1  
   110   56  104 1  
   111   57  105 1  
@<TRIPOS>SUBSTRUCTURE
     1 OO1         1

