### 
### Created by X-TOOL on Mon Aug  2 16:16:08 2021
### 

@<TRIPOS>MOLECULE
6pl1_ligand
   48    51     1     0     0
SMALL
GAST_HUCK


@<TRIPOS>ATOM
      1 C2          0.0200   10.3380   13.3390 C.3       1 OOJ         0.3726
      2 C5         -1.3600   10.7570   12.8910 C.ar      1 OOJ         0.0333
      3 C6         -2.4150   10.6910   13.7890 C.ar      1 OOJ        -0.0126
      4 C7         -3.6920   11.0930   13.3850 C.ar      1 OOJ         0.0961
      5 C8         -3.9010   11.5600   12.0840 C.ar      1 OOJ        -0.0114
      6 C12        -4.8460   11.4260   15.5260 C.2       1 OOJ         0.3279
      7 C15        -6.3020   11.7110   17.4510 C.2       1 OOJ         0.2181
      8 C18        -6.6340   12.2230   19.8480 C.2       1 OOJ         0.1619
      9 C21        -5.5450   11.7740   23.8570 C.2       1 OOJ        -0.0168
     10 N22        -5.8070   13.0330   24.2130 N.2       1 OOJ        -0.3283
     11 C23        -5.5750   13.4930   25.4520 C.2       1 OOJ         0.1647
     12 C24        -5.8810   14.8340   25.7810 C.2       1 OOJ        -0.0022
     13 C27        -4.7870   14.9130   29.4140 C.3       1 OOJ        -0.0304
     14 C30        -4.7760   11.3760   26.0910 C.2       1 OOJ         0.2229
     15 C32        -5.0250   10.8990   24.7950 C.2       1 OOJ        -0.0107
     16 F1          0.8800   10.2370   12.2540 F         1 OOJ        -0.2209
     17 F3          0.0260    9.1310   14.0350 F         1 OOJ        -0.2209
     18 F4          0.5030   11.3250   14.1900 F         1 OOJ        -0.2209
     19 C9         -2.8450   11.6280   11.1980 C.ar      1 OOJ        -0.0434
     20 C10        -1.5800   11.2330   11.6000 C.ar      1 OOJ        -0.0452
     21 N11        -4.8180   11.0640   14.2160 N.am      1 OOJ        -0.2068
     22 O13        -3.8540   11.7880   16.1400 O.2       1 OOJ        -0.3768
     23 N14        -6.0450   11.3620   16.1340 N.am      1 OOJ        -0.1755
     24 N16        -7.3720   12.3710   17.7380 N.2       1 OOJ        -0.2758
     25 N17        -7.5480   12.6610   19.0560 N.2       1 OOJ        -0.2787
     26 S19        -6.7680   12.5400   21.5730 S.3       1 OOJ        -0.0390
     27 C20        -5.8030   11.2840   22.4480 C.3       1 OOJ         0.0533
     28 C25        -5.6350   15.2890   27.0510 C.2       1 OOJ        -0.0446
     29 C26        -5.0740   14.4240   28.0140 C.2       1 OOJ         0.0065
     30 C28        -4.7840   13.1440   27.6780 C.2       1 OOJ         0.1156
     31 N29        -5.0370   12.6670   26.4140 N.am      1 OOJ        -0.1380
     32 O31        -4.3070   10.6210   26.9040 O.2       1 OOJ        -0.4096
     33 S33        -5.3810   11.3650   18.9220 S.3       1 OOJ         0.0741
     34 H1         -2.2506   10.3300   14.7978 H         1 OOJ         0.0710
     35 H2         -4.8920   11.8685   11.7713 H         1 OOJ         0.0758
     36 H3         -6.3083   15.4994   25.0323 H         1 OOJ         0.0580
     37 H4         -5.0851   15.9682   29.5021 H         1 OOJ         0.0359
     38 H5         -3.7112   14.8173   29.6225 H         1 OOJ         0.0359
     39 H6         -5.3557   14.3097   30.1369 H         1 OOJ         0.0359
     40 H7         -4.8138    9.8633   24.5330 H         1 OOJ         0.0180
     41 H8         -3.0055   11.9901   10.1889 H         1 OOJ         0.0664
     42 H9         -0.7522   11.2948   10.9029 H         1 OOJ         0.0740
     43 H10        -5.6765   10.7497   13.8108 H         1 OOJ         0.2267
     44 H11        -6.8169   11.0346   15.5890 H         1 OOJ         0.2399
     45 H12        -6.3657   10.3394   22.4805 H         1 OOJ         0.0613
     46 H13        -4.8462   11.1232   21.9297 H         1 OOJ         0.0613
     47 H14        -5.8727   16.3181   27.3162 H         1 OOJ         0.0731
     48 H15        -4.3431   12.4820   28.4218 H         1 OOJ         0.1283
@<TRIPOS>BOND
     1    2    1 1  
     2    1   16 1  
     3    1   17 1  
     4    1   18 1  
     5    3    2 ar 
     6    2   20 ar 
     7    4    3 ar 
     8    4    5 ar 
     9   21    4 1  
    10    5   19 ar 
    11    6   21 am 
    12    6   22 2  
    13   23    6 am 
    14    7   23 1  
    15    7   24 2  
    16   33    7 1  
    17    8   25 2  
    18   26    8 1  
    19    8   33 1  
    20   10    9 1  
    21    9   15 2  
    22    9   27 1  
    23   11   10 2  
    24   12   11 1  
    25   11   31 1  
    26   28   12 2  
    27   29   13 1  
    28   14   15 1  
    29   31   14 am 
    30   14   32 2  
    31   19   20 ar 
    32   25   24 1  
    33   27   26 1  
    34   28   29 1  
    35   29   30 2  
    36   30   31 1  
    37    3   34 1  
    38    5   35 1  
    39   12   36 1  
    40   13   37 1  
    41   13   38 1  
    42   13   39 1  
    43   15   40 1  
    44   19   41 1  
    45   20   42 1  
    46   21   43 1  
    47   23   44 1  
    48   27   45 1  
    49   27   46 1  
    50   28   47 1  
    51   30   48 1  
@<TRIPOS>SUBSTRUCTURE
     1 OOJ         1

