### 
### Created by X-TOOL on Mon Aug  2 16:16:08 2021
### 

@<TRIPOS>MOLECULE
6pl2_ligand
   55    58     1     0     0
SMALL
GAST_HUCK


@<TRIPOS>ATOM
      1 C1        -18.2430  -19.7450  -13.6780 C.3       1 OOM        -0.0851
      2 C2        -17.3490  -20.7520  -12.9540 C.3       1 OOM        -0.0450
      3 C3        -15.8910  -20.4800  -13.3130 C.3       1 OOM        -0.0851
      4 C4        -17.5160  -20.5740  -11.4450 C.3       1 OOM        -0.0851
      5 C5        -17.7200  -22.1720  -13.3170 C.2       1 OOM        -0.0022
      6 C6        -18.0350  -22.7020  -14.5770 C.2       1 OOM        -0.0184
      7 C7        -18.3030  -24.0390  -14.4380 C.2       1 OOM         0.2192
      8 C11       -18.8540  -26.0660  -17.6200 C.3       1 OOM         0.1121
      9 C18       -19.0310  -26.7760  -22.6590 C.ar      1 OOM         0.1152
     10 C19       -19.6040  -25.5220  -22.8250 C.ar      1 OOM        -0.0322
     11 C21       -18.6340  -25.3340  -25.0210 C.ar      1 OOM         0.0814
     12 C23       -18.0600  -26.5880  -24.8650 C.ar      1 OOM        -0.0363
     13 C24       -18.2690  -27.3020  -23.6980 C.ar      1 OOM        -0.0322
     14 C27       -18.3400  -25.5370  -12.4180 C.ar      1 OOM         0.1286
     15 C30       -18.7470  -27.9140  -10.9960 C.ar      1 OOM        -0.0662
     16 C31       -19.2070  -26.7090  -10.4870 C.ar      1 OOM        -0.0631
     17 C32       -19.0050  -25.5220  -11.1860 C.ar      1 OOM        -0.0207
     18 N8        -18.6880  -24.9650  -15.4350 N.am      1 OOM        -0.1984
     19 C9        -18.3110  -24.9610  -16.7450 C.2       1 OOM         0.2226
     20 O10       -17.5340  -24.1440  -17.2170 O.2       1 OOM        -0.3819
     21 S12       -18.8770  -25.6520  -19.3900 S.3       1 OOM        -0.0085
     22 C13       -19.1950  -27.2130  -20.1610 C.2       1 OOM         0.2446
     23 N14       -19.4560  -28.3140  -19.4970 N.2       1 OOM        -0.2105
     24 N15       -19.6480  -29.2930  -20.2830 N.2       1 OOM        -0.1522
     25 N16       -19.5330  -28.9040  -21.4940 N.2       1 OOM        -0.0596
     26 N17       -19.2300  -27.5390  -21.4880 N.pl3     1 OOM        -0.0887
     27 C20       -19.4080  -24.8110  -23.9970 C.ar      1 OOM        -0.0363
     28 O22       -18.4380  -24.6100  -26.1610 O.3       1 OOM        -0.3371
     29 N25       -18.1600  -24.3190  -13.0990 N.pl3     1 OOM        -0.1029
     30 N26       -17.7980  -23.1390  -12.4520 N.2       1 OOM        -0.1651
     31 C28       -17.8910  -26.7590  -12.9300 C.ar      1 OOM        -0.0207
     32 C29       -18.0960  -27.9400  -12.2240 C.ar      1 OOM        -0.0631
     33 H1        -17.9494  -18.7236  -13.3942 H         1 OOM         0.0133
     34 H2        -19.2922  -19.9167  -13.3956 H         1 OOM         0.0133
     35 H3        -18.1306  -19.8701  -14.7651 H         1 OOM         0.0133
     36 H4        -15.2446  -21.2028  -12.7938 H         1 OOM         0.0133
     37 H5        -15.6216  -19.4592  -13.0041 H         1 OOM         0.0133
     38 H6        -15.7558  -20.5819  -14.3999 H         1 OOM         0.0133
     39 H7        -18.5627  -20.7663  -11.1667 H         1 OOM         0.0133
     40 H8        -17.2453  -19.5453  -11.1649 H         1 OOM         0.0133
     41 H9        -16.8603  -21.2823  -10.9174 H         1 OOM         0.0133
     42 H10       -18.0621  -22.1434  -15.5114 H         1 OOM         0.0224
     43 H11       -19.8835  -26.2869  -17.3017 H         1 OOM         0.0657
     44 H12       -18.2273  -26.9592  -17.4804 H         1 OOM         0.0657
     45 H13       -20.2086  -25.0970  -22.0320 H         1 OOM         0.0563
     46 H14       -17.4489  -27.0075  -25.6560 H         1 OOM         0.0528
     47 H15       -17.8316  -28.2881  -23.5914 H         1 OOM         0.0563
     48 H16       -18.8944  -28.8320  -10.4386 H         1 OOM         0.0578
     49 H17       -19.7283  -26.6910   -9.5368 H         1 OOM         0.0607
     50 H18       -19.3631  -24.5847  -10.7757 H         1 OOM         0.0608
     51 H19       -19.3018  -25.7007  -15.1487 H         1 OOM         0.2339
     52 H20       -19.8647  -23.8350  -24.1149 H         1 OOM         0.0528
     53 H21       -17.8897  -25.1047  -26.7586 H         1 OOM         0.2461
     54 H22       -17.3789  -26.7859  -13.8851 H         1 OOM         0.0608
     55 H23       -17.7476  -28.8819  -12.6320 H         1 OOM         0.0607
@<TRIPOS>BOND
     1    2    1 1  
     2    2    3 1  
     3    2    4 1  
     4    5    2 1  
     5    6    5 1  
     6    5   30 2  
     7    7    6 2  
     8   18    7 1  
     9    7   29 1  
    10    8   19 1  
    11   21    8 1  
    12    9   10 ar 
    13    9   13 ar 
    14   26    9 1  
    15   10   27 ar 
    16   12   11 ar 
    17   27   11 ar 
    18   11   28 1  
    19   13   12 ar 
    20   14   17 ar 
    21   29   14 1  
    22   14   31 ar 
    23   16   15 ar 
    24   15   32 ar 
    25   17   16 ar 
    26   19   18 am 
    27   19   20 2  
    28   22   21 1  
    29   22   23 2  
    30   22   26 1  
    31   23   24 1  
    32   24   25 2  
    33   25   26 1  
    34   29   30 1  
    35   31   32 ar 
    36    1   33 1  
    37    1   34 1  
    38    1   35 1  
    39    3   36 1  
    40    3   37 1  
    41    3   38 1  
    42    4   39 1  
    43    4   40 1  
    44    4   41 1  
    45    6   42 1  
    46    8   43 1  
    47    8   44 1  
    48   10   45 1  
    49   12   46 1  
    50   13   47 1  
    51   15   48 1  
    52   16   49 1  
    53   17   50 1  
    54   18   51 1  
    55   27   52 1  
    56   28   53 1  
    57   31   54 1  
    58   32   55 1  
@<TRIPOS>SUBSTRUCTURE
     1 OOM         1

