### 
### Created by X-TOOL on Mon Aug  2 16:16:08 2021
### 

@<TRIPOS>MOLECULE
6pl3_ligand
   56    59     1     0     0
SMALL
GAST_HUCK


@<TRIPOS>ATOM
      1 C2         12.4890   15.0990   19.3790 C.2       1 OOD         0.2605
      2 C4         13.0420   14.6630   21.7200 C.3       1 OOD         0.1709
      3 C5         13.6900   13.5720   22.5400 C.2       1 OOD         0.2402
      4 C8         14.5250   12.9560   24.7670 C.2       1 OOD         0.2193
      5 C15        12.4290   14.6510   28.7730 C.ar      1 OOD        -0.0631
      6 C16        11.1680   14.8460   28.2220 C.ar      1 OOD        -0.0662
      7 C17        10.8940   14.3690   26.9460 C.ar      1 OOD        -0.0631
      8 C18        11.8720   13.6920   26.2250 C.ar      1 OOD        -0.0207
      9 C19        16.9100   10.3710   25.9270 C.3       1 OOD        -0.0450
     10 C21        16.9310    9.9030   27.3860 C.3       1 OOD        -0.0851
     11 C23        12.6870   14.8580   17.9270 C.ar      1 OOD         0.0555
     12 C24        11.6260   15.0250   17.0160 C.ar      1 OOD        -0.0438
     13 C27        14.1270   14.2210   16.0880 C.ar      1 OOD        -0.0172
     14 C30        12.3870   13.7230   12.8950 C.2       1 OOD         0.1685
     15 O1         11.6100   15.8540   19.7410 O.2       1 OOD        -0.3600
     16 O3         13.2770   14.4750   20.2930 O.3       1 OOD        -0.2566
     17 O6         13.9440   12.4990   22.0210 O.2       1 OOD        -0.3800
     18 N7         13.9390   13.8420   23.8510 N.am      1 OOD        -0.1971
     19 C9         15.5660   12.1030   24.5450 C.2       1 OOD        -0.0184
     20 C10        15.8340   11.4160   25.7320 C.2       1 OOD        -0.0022
     21 N11        14.9940   11.8390   26.6410 N.2       1 OOD        -0.1651
     22 N12        14.1570   12.8100   26.0750 N.pl3     1 OOD        -0.1029
     23 C13        13.1410   13.4910   26.7730 C.ar      1 OOD         0.1286
     24 C14        13.4090   13.9780   28.0560 C.ar      1 OOD        -0.0207
     25 C20        18.2740   10.9690   25.5710 C.3       1 OOD        -0.0851
     26 C22        16.6440    9.1780   25.0080 C.3       1 OOD        -0.0851
     27 C25        11.8190   14.7930   15.6630 C.ar      1 OOD        -0.0172
     28 C26        13.0720   14.3910   15.1830 C.ar      1 OOD         0.1313
     29 C28        13.9420   14.4530   17.4400 C.ar      1 OOD        -0.0438
     30 N29        13.2870   14.1390   13.8160 N.pl3     1 OOD        -0.0926
     31 N31        13.0150   13.5970   11.7550 N.2       1 OOD        -0.2059
     32 N32        14.2550   13.8990   11.8870 N.2       1 OOD        -0.1365
     33 N33        14.5000   14.2350   13.1070 N.2       1 OOD        -0.0468
     34 H1         13.4588   15.6341   22.0253 H         1 OOD         0.0863
     35 H2         11.9581   14.6540   21.9072 H         1 OOD         0.0863
     36 H3         12.6481   15.0258   29.7663 H         1 OOD         0.0607
     37 H4         10.4022   15.3675   28.7848 H         1 OOD         0.0578
     38 H5          9.9137   14.5252   26.5105 H         1 OOD         0.0607
     39 H6         11.6482   13.3183   25.2324 H         1 OOD         0.0608
     40 H7         17.7164    9.1439   27.5163 H         1 OOD         0.0133
     41 H8         15.9545    9.4685   27.6458 H         1 OOD         0.0133
     42 H9         17.1373   10.7606   28.0432 H         1 OOD         0.0133
     43 H10        10.6520   15.3370   17.3752 H         1 OOD         0.0656
     44 H11        15.0985   13.9045   15.7260 H         1 OOD         0.0606
     45 H12        11.3302   13.5283   13.0715 H         1 OOD         0.1431
     46 H13        13.6827   14.7475   24.1891 H         1 OOD         0.2339
     47 H14        16.0978   11.9785   23.6029 H         1 OOD         0.0224
     48 H15        14.3893   13.8290   28.4941 H         1 OOD         0.0608
     49 H16        18.2643   11.3067   24.5242 H         1 OOD         0.0133
     50 H17        19.0548   10.2055   25.7027 H         1 OOD         0.0133
     51 H18        18.4827   11.8244   26.2303 H         1 OOD         0.0133
     52 H19        15.6661    8.7377   25.2526 H         1 OOD         0.0133
     53 H20        17.4316    8.4233   25.1496 H         1 OOD         0.0133
     54 H21        16.6428    9.5149   23.9609 H         1 OOD         0.0133
     55 H22        10.9944   14.9236   14.9716 H         1 OOD         0.0606
     56 H23        14.7698   14.3216   18.1274 H         1 OOD         0.0656
@<TRIPOS>BOND
     1   11    1 1  
     2    1   15 2  
     3    1   16 1  
     4    2    3 1  
     5   16    2 1  
     6    3   17 2  
     7    3   18 am 
     8   18    4 1  
     9    4   19 2  
    10    4   22 1  
    11    5    6 ar 
    12   24    5 ar 
    13    7    6 ar 
    14    8    7 ar 
    15   23    8 ar 
    16    9   10 1  
    17   20    9 1  
    18    9   25 1  
    19    9   26 1  
    20   12   11 ar 
    21   29   11 ar 
    22   27   12 ar 
    23   28   13 ar 
    24   13   29 ar 
    25   30   14 1  
    26   14   31 2  
    27   19   20 1  
    28   21   20 2  
    29   22   21 1  
    30   22   23 1  
    31   23   24 ar 
    32   28   27 ar 
    33   28   30 1  
    34   30   33 1  
    35   31   32 1  
    36   32   33 2  
    37    2   34 1  
    38    2   35 1  
    39    5   36 1  
    40    6   37 1  
    41    7   38 1  
    42    8   39 1  
    43   10   40 1  
    44   10   41 1  
    45   10   42 1  
    46   12   43 1  
    47   13   44 1  
    48   14   45 1  
    49   18   46 1  
    50   19   47 1  
    51   24   48 1  
    52   25   49 1  
    53   25   50 1  
    54   25   51 1  
    55   26   52 1  
    56   26   53 1  
    57   26   54 1  
    58   27   55 1  
    59   29   56 1  
@<TRIPOS>SUBSTRUCTURE
     1 OOD         1

