### 
### Created by X-TOOL on Mon Aug  2 16:16:09 2021
### 

@<TRIPOS>MOLECULE
6plf_ligand
   52    55     1     0     0
SMALL
GAST_HUCK


@<TRIPOS>ATOM
      1 C1         15.8620   24.6460  -11.1460 C.3       1 ONV         0.1354
      2 C2         14.7840   24.1690  -12.1080 C.3       1 ONV         0.0659
      3 C3         15.5750   24.0820   -9.7700 C.3       1 ONV         0.1020
      4 C4         15.0110   25.7020   -7.9920 C.ar      1 ONV         0.0948
      5 C5         15.4060   25.1560   -6.7800 C.ar      1 ONV         0.0567
      6 C6         14.7420   27.0000   -8.1470 C.ar      1 ONV        -0.0125
      7 C7         14.8280   27.8000   -7.0720 C.ar      1 ONV         0.0588
      8 C8         15.2120   27.2730   -5.8470 C.ar      1 ONV        -0.0248
      9 C9         15.5390   25.9300   -5.6920 C.ar      1 ONV        -0.0610
     10 C10        14.9020   29.4480   -5.6900 C.2       1 ONV         0.1269
     11 C11        15.3050   28.3280   -5.0020 C.2       1 ONV        -0.0451
     12 C12        14.8420   30.7910   -5.1470 C.2       1 ONV         0.2250
     13 C13        15.3800   32.2620   -3.3050 C.3       1 ONV         0.0991
     14 C14        14.0730   32.3750   -2.5790 C.ar      1 ONV        -0.0131
     15 C15        13.6310   31.2610   -1.8450 C.ar      1 ONV        -0.0543
     16 C16        12.4430   31.3000   -1.1480 C.ar      1 ONV        -0.0542
     17 C17        11.6480   32.4460   -1.1020 C.ar      1 ONV         0.0032
     18 O5          9.4220   33.1200   -0.8600 O.co2     1 ONV        -0.5625
     19 C20        10.3360   32.4500   -0.2810 C.2       1 ONV         0.0584
     20 O4         10.1630   31.8550    0.9050 O.co2     1 ONV        -0.5625
     21 C18        12.0710   33.5710   -1.8680 C.ar      1 ONV        -0.0542
     22 C19        13.2550   33.5190   -2.6200 C.ar      1 ONV        -0.0543
     23 C21        16.4520   32.2530   -2.2250 C.3       1 ONV         0.0771
     24 O6         17.7520   32.2520   -2.8180 O.3       1 ONV        -0.3906
     25 N2         15.4380   30.9800   -4.0090 N.am      1 ONV        -0.2688
     26 O3         14.3390   31.6630   -5.8450 O.2       1 ONV        -0.3864
     27 CL         15.7030   23.3890   -6.7610 Cl        1 ONV        -0.0857
     28 N11        14.6230   29.1530   -6.9730 N.pl3     1 ONV        -0.2719
     29 O2         14.7590   25.0210   -9.1380 O.3       1 ONV        -0.3188
     30 N          15.4250   22.9290  -12.5400 N.am      1 ONV        -0.2596
     31 O1         17.0910   24.0090  -11.4460 O.3       1 ONV        -0.2559
     32 C          16.7270   22.8970  -12.3100 C.2       1 ONV         0.3200
     33 O          17.5610   22.1160  -12.7710 O.2       1 ONV        -0.3775
     34 H1         15.9404   25.7432  -11.1512 H         1 ONV         0.0695
     35 H2         14.6305   24.8701  -12.9416 H         1 ONV         0.0549
     36 H3         13.8251   23.9867  -11.6009 H         1 ONV         0.0549
     37 H4         16.5110   23.9477   -9.2080 H         1 ONV         0.0643
     38 H5         15.0550   23.1162   -9.8525 H         1 ONV         0.0643
     39 H6         14.4614   27.3980   -9.1155 H         1 ONV         0.0451
     40 H7         15.8823   25.5306   -4.7445 H         1 ONV         0.0553
     41 H8         15.6385   28.2948   -3.9658 H         1 ONV         0.0389
     42 H9         15.5198   33.0984   -4.0056 H         1 ONV         0.0748
     43 H10        14.2325   30.3594   -1.8269 H         1 ONV         0.0565
     44 H11        12.1156   30.4125   -0.6187 H         1 ONV         0.0634
     45 H12        11.4729   34.4750   -1.8698 H         1 ONV         0.0634
     46 H13        13.5406   34.3644   -3.2354 H         1 ONV         0.0565
     47 H14        16.3352   31.3520   -1.6049 H         1 ONV         0.0604
     48 H15        16.3408   33.1482   -1.5956 H         1 ONV         0.0604
     49 H16        17.8507   31.4785   -3.3606 H         1 ONV         0.2097
     50 H17        15.9528   30.2261   -3.6007 H         1 ONV         0.1872
     51 H18        14.3222   29.7997   -7.7161 H         1 ONV         0.2240
     52 H19        14.9264   22.1758  -12.9690 H         1 ONV         0.1868
@<TRIPOS>BOND
     1    1    2 1  
     2    3    1 1  
     3    1   31 1  
     4    2   30 1  
     5   29    3 1  
     6    4    5 ar 
     7    6    4 ar 
     8    4   29 1  
     9    9    5 ar 
    10    5   27 1  
    11    7    6 ar 
    12    7    8 ar 
    13   28    7 1  
    14    8    9 ar 
    15   11    8 1  
    16   10   11 2  
    17   12   10 1  
    18   10   28 1  
    19   25   12 am 
    20   12   26 2  
    21   13   14 1  
    22   13   23 1  
    23   13   25 1  
    24   14   15 ar 
    25   14   22 ar 
    26   15   16 ar 
    27   16   17 ar 
    28   17   19 1  
    29   17   21 ar 
    30   19   18 ar 
    31   19   20 ar 
    32   21   22 ar 
    33   23   24 1  
    34   30   32 am 
    35   31   32 1  
    36   32   33 2  
    37    1   34 1  
    38    2   35 1  
    39    2   36 1  
    40    3   37 1  
    41    3   38 1  
    42    6   39 1  
    43    9   40 1  
    44   11   41 1  
    45   13   42 1  
    46   15   43 1  
    47   16   44 1  
    48   21   45 1  
    49   22   46 1  
    50   23   47 1  
    51   23   48 1  
    52   24   49 1  
    53   25   50 1  
    54   28   51 1  
    55   30   52 1  
@<TRIPOS>SUBSTRUCTURE
     1 ONV         1

