### 
### Created by X-TOOL on Mon Aug  2 16:11:24 2021
### 

@<TRIPOS>MOLECULE
6plg_ligand
   55    59     1     0     0
SMALL
GAST_HUCK


@<TRIPOS>ATOM
      1 O2         -9.5570    1.3080  -45.1640 O.co2     1 ONS        -0.5625
      2 C19        -9.7420    1.1300  -46.3990 C.2       1 ONS         0.0685
      3 O3         -9.4770    1.9740  -47.2770 O.co2     1 ONS        -0.5625
      4 C18       -10.3250   -0.1530  -46.9100 C.3       1 ONS         0.0983
      5 C20       -11.7970    0.0470  -46.9070 C.ar      1 ONS         0.0176
      6 C21       -12.5260   -0.3080  -48.0550 C.ar      1 ONS         0.0178
      7 N2        -13.8550   -0.1260  -48.1170 N.ar      1 ONS        -0.3031
      8 C22       -14.5070    0.4190  -47.0780 C.ar      1 ONS         0.0050
      9 C23       -13.8270    0.8090  -45.9140 C.ar      1 ONS        -0.0393
     10 C24       -12.4530    0.6310  -45.8200 C.ar      1 ONS        -0.0353
     11 C15        -9.7280   -1.2710  -46.1260 C.ar      1 ONS         0.0165
     12 C16       -10.3860   -2.0480  -45.1750 C.ar      1 ONS        -0.0246
     13 C17        -9.6840   -3.0540  -44.5050 C.ar      1 ONS        -0.0426
     14 C14        -8.3840   -1.5100  -46.3750 C.ar      1 ONS        -0.0246
     15 C13        -7.6850   -2.5030  -45.7000 C.ar      1 ONS        -0.0426
     16 C12        -8.3210   -3.3000  -44.7560 C.ar      1 ONS        -0.0303
     17 C9         -7.5660   -4.4060  -44.0280 C.3       1 ONS         0.0830
     18 C10        -6.5600   -3.9140  -43.0050 C.3       1 ONS         0.0477
     19 O1         -5.4710   -4.4550  -43.7560 O.3       1 ONS        -0.3943
     20 C11        -6.3650   -4.9860  -44.7530 C.3       1 ONS         0.0477
     21 N1         -8.4650   -5.4050  -43.4920 N.am      1 ONS        -0.3102
     22 C8         -9.2550   -6.1300  -44.2760 C.2       1 ONS         0.2187
     23 O          -9.1820   -6.0750  -45.4980 O.2       1 ONS        -0.3849
     24 C6        -10.3620   -6.8990  -43.6480 C.2       1 ONS         0.1335
     25 C7        -10.8750   -6.6440  -42.3940 C.2       1 ONS        -0.0387
     26 N         -11.0880   -7.9160  -44.1890 N.pl3     1 ONS        -0.2554
     27 C25       -10.8530   -8.4800  -45.5380 C.3       1 ONS         0.0408
     28 C5        -12.0500   -8.3460  -43.3350 C.ar      1 ONS         0.0706
     29 C         -13.0370   -9.3330  -43.4020 C.ar      1 ONS        -0.0395
     30 C1        -13.8980   -9.5160  -42.3180 C.ar      1 ONS        -0.0595
     31 C4        -11.9320   -7.5580  -42.1980 C.ar      1 ONS        -0.0032
     32 C3        -12.7870   -7.7470  -41.1290 C.ar      1 ONS         0.0451
     33 CL        -12.7200   -6.7990  -39.6070 Cl        1 ONS        -0.0754
     34 C2        -13.7500   -8.7050  -41.1900 C.ar      1 ONS         0.0392
     35 CL1       -14.7470   -8.7930  -39.7100 Cl        1 ONS        -0.0803
     36 H1        -10.0214   -0.3040  -47.9564 H         1 ONS         0.0866
     37 H2        -12.0066   -0.7360  -48.9048 H         1 ONS         0.0777
     38 H3        -15.5800    0.5607  -47.1392 H         1 ONS         0.0774
     39 H4        -14.3743    1.2492  -45.0883 H         1 ONS         0.0695
     40 H5        -11.9079    0.9347  -44.9336 H         1 ONS         0.0689
     41 H6        -11.4334   -1.8739  -44.9566 H         1 ONS         0.0658
     42 H7        -10.2033   -3.6611  -43.7723 H         1 ONS         0.0833
     43 H8         -7.8673   -0.9078  -47.1135 H         1 ONS         0.0658
     44 H9         -6.6332   -2.6575  -45.9118 H         1 ONS         0.0833
     45 H10        -6.6812   -4.3687  -42.0108 H         1 ONS         0.0473
     46 H11        -6.5287   -2.8189  -42.9061 H         1 ONS         0.0473
     47 H12        -6.2082   -4.5683  -45.7585 H         1 ONS         0.0473
     48 H13        -6.3670   -6.0846  -44.8085 H         1 ONS         0.0473
     49 H14        -8.4924   -5.5538  -42.5035 H         1 ONS         0.1715
     50 H15       -10.5316   -5.8855  -41.6920 H         1 ONS         0.0399
     51 H16       -10.0158   -7.9503  -46.0161 H         1 ONS         0.0563
     52 H17       -11.7598   -8.3596  -46.1489 H         1 ONS         0.0563
     53 H18       -10.6087   -9.5490  -45.4511 H         1 ONS         0.0563
     54 H19       -13.1334   -9.9509  -44.2874 H         1 ONS         0.0553
     55 H20       -14.6700  -10.2762  -42.3512 H         1 ONS         0.0556
@<TRIPOS>BOND
     1    1    2 ar 
     2    2    3 ar 
     3    2    4 1  
     4    4    5 1  
     5    4   11 1  
     6    5    6 ar 
     7    5   10 ar 
     8    6    7 ar 
     9    7    8 ar 
    10    8    9 ar 
    11    9   10 ar 
    12   11   12 ar 
    13   11   14 ar 
    14   12   13 ar 
    15   13   16 ar 
    16   14   15 ar 
    17   15   16 ar 
    18   16   17 1  
    19   17   18 1  
    20   17   20 1  
    21   17   21 1  
    22   18   19 1  
    23   19   20 1  
    24   21   22 am 
    25   22   23 2  
    26   22   24 1  
    27   24   25 2  
    28   24   26 1  
    29   25   31 1  
    30   26   27 1  
    31   26   28 1  
    32   28   29 ar 
    33   28   31 ar 
    34   29   30 ar 
    35   30   34 ar 
    36   31   32 ar 
    37   32   33 1  
    38   32   34 ar 
    39   34   35 1  
    40    4   36 1  
    41    6   37 1  
    42    8   38 1  
    43    9   39 1  
    44   10   40 1  
    45   12   41 1  
    46   13   42 1  
    47   14   43 1  
    48   15   44 1  
    49   18   45 1  
    50   18   46 1  
    51   20   47 1  
    52   20   48 1  
    53   21   49 1  
    54   25   50 1  
    55   27   51 1  
    56   27   52 1  
    57   27   53 1  
    58   29   54 1  
    59   30   55 1  
@<TRIPOS>SUBSTRUCTURE
     1 ONS         1

