### 
### Created by X-TOOL on Mon Aug  2 16:16:09 2021
### 

@<TRIPOS>MOLECULE
6pm9_ligand
   31    32     1     0     0
SMALL
GAST_HUCK


@<TRIPOS>ATOM
      1 C1         -0.4250  -35.6550    1.7390 C.3       1 OQ1         0.1130
      2 C2         -0.8410  -36.3130    0.4230 C.3       1 OQ1         0.0929
      3 C3         -0.1470  -37.6530    0.1330 C.3       1 OQ1         0.0547
      4 C4          1.2980  -37.5780    0.5510 C.3       1 OQ1         0.1371
      5 C5          1.6780  -35.2380    3.2230 C.3       1 OQ1         0.2675
      6 C11         2.3310  -36.9720   -3.8040 C.3       1 OQ1         0.0329
      7 C9          0.9410  -37.5370   -1.9000 C.2       1 OQ1         0.1594
      8 C12         2.6740  -37.6390   -5.0880 C.3       1 OQ1        -0.0438
      9 C           1.1000  -35.6420    1.8840 C.3       1 OQ1         0.1486
     10 O           1.5620  -36.9770    1.8070 O.3       1 OQ1        -0.3504
     11 O6         -2.2450  -36.4980    0.4290 O.3       1 OQ1        -0.3886
     12 O7         -0.9580  -34.3300    1.7860 O.3       1 OQ1        -0.3865
     13 F           2.0860  -33.9390    3.2240 F         1 OQ1        -0.2063
     14 N          -0.1820  -37.8480   -1.3230 N.2       1 OQ1        -0.3555
     15 S           2.2330  -36.9930   -0.8510 S.3       1 OQ1         0.0009
     16 N10         1.1120  -37.5070   -3.2640 N.pl3     1 OQ1        -0.2802
     17 F1          0.8700  -35.5420    4.2800 F         1 OQ1        -0.2063
     18 H1         -0.8470  -36.2347    2.5732 H         1 OQ1         0.0647
     19 H2         -0.5807  -35.6221   -0.3924 H         1 OQ1         0.0626
     20 H3         -0.6574  -38.4759    0.6549 H         1 OQ1         0.0398
     21 H4          1.6150  -38.6216    0.6939 H         1 OQ1         0.0757
     22 H5          2.5862  -35.8440    3.3568 H         1 OQ1         0.1046
     23 H6          2.2054  -35.8934   -3.9796 H         1 OQ1         0.0531
     24 H7          3.1466  -37.1338   -3.0838 H         1 OQ1         0.0531
     25 H8          3.6089  -37.2150   -5.4831 H         1 OQ1         0.0250
     26 H9          1.8629  -37.4775   -5.8132 H         1 OQ1         0.0250
     27 H10         2.8041  -38.7179   -4.9175 H         1 OQ1         0.0250
     28 H11         1.5212  -35.0121    1.0866 H         1 OQ1         0.0680
     29 H12        -2.6718  -35.6685    0.6084 H         1 OQ1         0.2099
     30 H13        -1.9028  -34.3665    1.6941 H         1 OQ1         0.2100
     31 H14         0.3759  -37.8633   -3.8902 H         1 OQ1         0.1939
@<TRIPOS>BOND
     1    2    1 1  
     2    1    9 1  
     3    1   12 1  
     4    3    2 1  
     5    2   11 1  
     6    4    3 1  
     7   14    3 1  
     8    4   10 1  
     9   15    4 1  
    10    9    5 1  
    11    5   13 1  
    12    5   17 1  
    13    6    8 1  
    14   16    6 1  
    15    7   14 2  
    16    7   15 1  
    17    7   16 1  
    18    9   10 1  
    19    1   18 1  
    20    2   19 1  
    21    3   20 1  
    22    4   21 1  
    23    5   22 1  
    24    6   23 1  
    25    6   24 1  
    26    8   25 1  
    27    8   26 1  
    28    8   27 1  
    29    9   28 1  
    30   11   29 1  
    31   12   30 1  
    32   16   31 1  
@<TRIPOS>SUBSTRUCTURE
     1 OQ1         1

