### 
### Created by X-TOOL on Mon Aug  2 16:16:09 2021
### 

@<TRIPOS>MOLECULE
6pml_ligand
   34    36     1     0     0
SMALL
GAST_HUCK


@<TRIPOS>ATOM
      1 C02        38.9820    5.1150    0.4680 C.2       1 OR4         0.0408
      2 C04        37.5540    5.8250    0.3530 C.3       1 OR4         0.0188
      3 C05        37.3130    7.0120    1.2330 C.2       1 OR4        -0.0236
      4 C06        36.1810    7.3040    1.8930 C.2       1 OR4         0.0738
      5 C08        37.5040    8.9710    2.4700 C.ar      1 OR4         0.1112
      6 C09        38.0180   10.1460    3.0470 C.ar      1 OR4        -0.0043
      7 C10        39.3370   10.5130    2.7550 C.ar      1 OR4         0.0833
      8 C12        39.2570   12.4730    4.2400 C.3       1 OR4         0.1031
      9 C13        40.2060   13.5760    4.6840 C.ar      1 OR4        -0.0130
     10 C14        41.0900   13.4320    5.7520 C.ar      1 OR4        -0.0578
     11 C15        41.9740   14.4230    6.1440 C.ar      1 OR4        -0.0685
     12 C16        42.0450   15.6230    5.4670 C.ar      1 OR4        -0.0687
     13 C17        41.1900   15.8160    4.3910 C.ar      1 OR4        -0.0685
     14 C18        40.3050   14.8110    4.0100 C.ar      1 OR4        -0.0578
     15 C19        40.0600    9.6670    1.8940 C.ar      1 OR4        -0.0446
     16 C20        39.5230    8.5180    1.3440 C.ar      1 OR4        -0.0751
     17 C21        38.2240    8.1020    1.5950 C.ar      1 OR4        -0.0121
     18 O01        39.9640    5.7550    0.0370 O.co2     1 OR4        -0.5673
     19 O03        39.0170    3.9840    0.9870 O.co2     1 OR4        -0.5673
     20 O07        36.2280    8.4710    2.6550 O.3       1 OR4        -0.2746
     21 O11        39.9060   11.6480    3.2790 O.3       1 OR4        -0.3107
     22 H1         36.7887    5.0725    0.5938 H         1 OR4         0.0521
     23 H2         37.4297    6.1539   -0.6893 H         1 OR4         0.0521
     24 H3         35.2926    6.6766    1.8375 H         1 OR4         0.0879
     25 H4         37.4062   10.7542    3.7035 H         1 OR4         0.0466
     26 H5         38.3581   12.9210    3.7914 H         1 OR4         0.0777
     27 H6         38.9685   11.8651    5.1101 H         1 OR4         0.0777
     28 H7         41.0852   12.4983    6.3027 H         1 OR4         0.0557
     29 H8         42.6210   14.2532    6.9970 H         1 OR4         0.0599
     30 H9         42.7476   16.3922    5.7666 H         1 OR4         0.0559
     31 H10        41.2113   16.7524    3.8453 H         1 OR4         0.0599
     32 H11        39.6618   14.9859    3.1552 H         1 OR4         0.0557
     33 H12        41.0837    9.9278    1.6511 H         1 OR4         0.0476
     34 H13        40.1433    7.9169    0.6890 H         1 OR4         0.0539
@<TRIPOS>BOND
     1    2    1 1  
     2    1   18 ar 
     3    1   19 ar 
     4    3    2 1  
     5    4    3 2  
     6   17    3 1  
     7   20    4 1  
     8    6    5 ar 
     9    5   17 ar 
    10    5   20 1  
    11    7    6 ar 
    12    7   15 ar 
    13   21    7 1  
    14    8    9 1  
    15    8   21 1  
    16    9   10 ar 
    17    9   14 ar 
    18   10   11 ar 
    19   11   12 ar 
    20   12   13 ar 
    21   13   14 ar 
    22   15   16 ar 
    23   16   17 ar 
    24    2   22 1  
    25    2   23 1  
    26    4   24 1  
    27    6   25 1  
    28    8   26 1  
    29    8   27 1  
    30   10   28 1  
    31   11   29 1  
    32   12   30 1  
    33   13   31 1  
    34   14   32 1  
    35   15   33 1  
    36   16   34 1  
@<TRIPOS>SUBSTRUCTURE
     1 OR4         1

