### 
### Created by X-TOOL on Mon Aug  2 16:11:39 2021
### 

@<TRIPOS>MOLECULE
6pnm_ligand
   35    36     1     0     0
SMALL
GAST_HUCK


@<TRIPOS>ATOM
      1 C1         15.8460   12.3350   36.8630 C.3       1 XX0         0.0317
      2 C2         14.5130   12.4390   37.6520 C.2       1 XX0         0.2007
      3 O2         13.9820   13.5220   37.8530 O.2       1 XX0        -0.3851
      4 N3         14.0970   11.3150   38.2400 N.am      1 XX0        -0.2338
      5 C4         13.0180   11.4110   39.0730 C.ar      1 XX0         0.0686
      6 C51        12.7640   12.5940   39.7850 C.ar      1 XX0        -0.0140
      7 C52        12.2580   10.3070   39.3290 C.ar      1 XX0        -0.0404
      8 C62        11.2000   10.3960   40.2140 C.ar      1 XX0        -0.0597
      9 C7         10.9480   11.5400   40.9090 C.ar      1 XX0         0.0503
     10 CL7         9.7560   11.5200   41.8190 Cl        1 XX0        -0.0829
     11 C61        11.7120   12.6670   40.6820 C.ar      1 XX0         0.1089
     12 S7         11.3850   14.2520   41.5130 S.o2      1 XX0         0.0678
     13 O71        12.4020   15.2140   41.2090 O.2       1 XX0        -0.1503
     14 O72        11.1970   13.6800   42.8520 O.2       1 XX0        -0.1503
     15 N8         10.1670   14.8790   41.0490 N.am      1 XX0        -0.2299
     16 C91         9.7530   16.1790   41.6760 C.3       1 XX0         0.0531
     17 CA1         8.2190   16.3560   41.5620 C.3       1 XX0         0.0647
     18 OB          7.8380   16.1320   40.1850 O.3       1 XX0        -0.3766
     19 CA2         9.0110   16.1960   39.2860 C.3       1 XX0         0.0647
     20 C92        10.0320   15.0410   39.5960 C.3       1 XX0         0.0531
     21 H1         16.1504   11.2802   36.7950 H         1 XX0         0.0472
     22 H2         16.6264   12.9089   37.3842 H         1 XX0         0.0472
     23 H3         15.7057   12.7421   35.8508 H         1 XX0         0.0472
     24 H4         14.5550   10.4409   38.0779 H         1 XX0         0.2259
     25 H5         13.3983   13.4594   39.6308 H         1 XX0         0.0523
     26 H6         12.4827    9.3655   38.8411 H         1 XX0         0.0503
     27 H7         10.5562    9.5359   40.3582 H         1 XX0         0.0584
     28 H8         10.2551   17.0096   41.1583 H         1 XX0         0.0501
     29 H9         10.0421   16.1801   42.7373 H         1 XX0         0.0501
     30 H10         7.9386   17.3757   41.8645 H         1 XX0         0.0576
     31 H11         7.7111   15.6280   42.2117 H         1 XX0         0.0576
     32 H12         9.5140   17.1648   39.4216 H         1 XX0         0.0576
     33 H13         8.6698   16.1026   38.2445 H         1 XX0         0.0576
     34 H14         9.6667   14.1016   39.1554 H         1 XX0         0.0501
     35 H15        11.0115   15.2925   39.1632 H         1 XX0         0.0501
@<TRIPOS>BOND
     1    1    2 1  
     2    2    3 2  
     3    2    4 am 
     4    4    5 1  
     5    5    6 ar 
     6    5    7 ar 
     7    6   11 ar 
     8    7    8 ar 
     9    8    9 ar 
    10    9   10 1  
    11    9   11 ar 
    12   11   12 1  
    13   12   13 2  
    14   12   14 2  
    15   12   15 am 
    16   15   16 1  
    17   15   20 1  
    18   16   17 1  
    19   17   18 1  
    20   18   19 1  
    21   19   20 1  
    22    1   21 1  
    23    1   22 1  
    24    1   23 1  
    25    4   24 1  
    26    6   25 1  
    27    7   26 1  
    28    8   27 1  
    29   16   28 1  
    30   16   29 1  
    31   17   30 1  
    32   17   31 1  
    33   19   32 1  
    34   19   33 1  
    35   20   34 1  
    36   20   35 1  
@<TRIPOS>SUBSTRUCTURE
     1 XX0         1

