### 
### Created by X-TOOL on Mon Aug  2 16:11:39 2021
### 

@<TRIPOS>MOLECULE
6pnn_ligand
   37    37     1     0     0
SMALL
GAST_HUCK


@<TRIPOS>ATOM
      1 CAA        18.2860   -7.6220   13.6290 C.3       1 OR7         0.0317
      2 CAC        17.8360   -6.4360   14.3700 C.2       1 OR7         0.2007
      3 OAD        18.5810   -5.4640   14.3610 O.2       1 OR7        -0.3851
      4 NAE        16.5470   -6.5100   14.8530 N.am      1 OR7        -0.2338
      5 CAF        16.0560   -5.5260   15.6420 C.ar      1 OR7         0.0686
      6 CAH        16.9330   -4.6830   16.3910 C.ar      1 OR7        -0.0140
      7 CAG        14.6740   -5.3780   15.7890 C.ar      1 OR7        -0.0404
      8 CAI        14.2050   -4.3790   16.6340 C.ar      1 OR7        -0.0597
      9 CAK        15.0980   -3.5390   17.3440 C.ar      1 OR7         0.0503
     10 CLA        14.4970   -2.3320   18.3230 Cl        1 OR7        -0.0829
     11 CAJ        16.4900   -3.6590   17.2340 C.ar      1 OR7         0.1089
     12 SAM        17.7840   -2.4650   18.2510 S.o2      1 OR7         0.0675
     13 OAN        17.3600   -2.5260   19.7180 O.2       1 OR7        -0.1503
     14 OAO        19.2980   -2.8250   18.0940 O.2       1 OR7        -0.1503
     15 NAP        17.8800   -0.7160   17.8170 N.am      1 OR7        -0.2351
     16 CAQ        16.5720   -0.0980   17.5230 C.3       1 OR7         0.0183
     17 CAR        18.9060   -0.5160   16.7600 C.3       1 OR7         0.0527
     18 CAS        18.5170   -1.2980   15.4570 C.3       1 OR7         0.0643
     19 OAT        19.2740   -2.5220   15.1850 O.3       1 OR7        -0.3814
     20 CAU        18.9760   -2.9460   13.8240 C.3       1 OR7         0.0365
     21 H1         17.5312   -8.4173   13.7167 H         1 OR7         0.0472
     22 H2         19.2406   -7.9748   14.0464 H         1 OR7         0.0472
     23 H3         18.4231   -7.3619   12.5690 H         1 OR7         0.0472
     24 H4         15.9721   -7.2942   14.6194 H         1 OR7         0.2259
     25 H5         18.0009   -4.8461   16.3009 H         1 OR7         0.0523
     26 H6         13.9858   -6.0255   15.2578 H         1 OR7         0.0503
     27 H7         13.1364   -4.2401   16.7519 H         1 OR7         0.0584
     28 H8         16.7164    0.9625   17.2689 H         1 OR7         0.0442
     29 H9         15.9217   -0.1780   18.4066 H         1 OR7         0.0442
     30 H10        16.1033   -0.6178   16.6744 H         1 OR7         0.0442
     31 H11        19.8769   -0.8822   17.1249 H         1 OR7         0.0501
     32 H12        18.9821    0.5567   16.5285 H         1 OR7         0.0501
     33 H13        18.6595   -0.6191   14.6034 H         1 OR7         0.0576
     34 H14        17.4544   -1.5714   15.5347 H         1 OR7         0.0576
     35 H15        19.5345   -3.8659   13.5960 H         1 OR7         0.0523
     36 H16        19.2712   -2.1539   13.1202 H         1 OR7         0.0523
     37 H17        17.8973   -3.1386   13.7278 H         1 OR7         0.0523
@<TRIPOS>BOND
     1    1    2 1  
     2    2    3 2  
     3    2    4 am 
     4    4    5 1  
     5    5    6 ar 
     6    5    7 ar 
     7    6   11 ar 
     8    7    8 ar 
     9    8    9 ar 
    10    9   10 1  
    11    9   11 ar 
    12   11   12 1  
    13   12   13 2  
    14   12   14 2  
    15   12   15 am 
    16   15   16 1  
    17   15   17 1  
    18   17   18 1  
    19   18   19 1  
    20   19   20 1  
    21    1   21 1  
    22    1   22 1  
    23    1   23 1  
    24    4   24 1  
    25    6   25 1  
    26    7   26 1  
    27    8   27 1  
    28   16   28 1  
    29   16   29 1  
    30   16   30 1  
    31   17   31 1  
    32   17   32 1  
    33   18   33 1  
    34   18   34 1  
    35   20   35 1  
    36   20   36 1  
    37   20   37 1  
@<TRIPOS>SUBSTRUCTURE
     1 OR7         1

