### 
### Created by X-TOOL on Mon Aug  2 16:11:40 2021
### 

@<TRIPOS>MOLECULE
6pno_ligand
   33    33     1     0     0
SMALL
GAST_HUCK


@<TRIPOS>ATOM
      1 CAR        18.5370   -7.4600   13.5770 C.3       1 ORM         0.0317
      2 CAP        18.1290   -6.2490   14.3920 C.2       1 ORM         0.2007
      3 OAQ        18.8160   -5.1930   14.3480 O.2       1 ORM        -0.3851
      4 NAH        16.9740   -6.4680   15.0230 N.am      1 ORM        -0.2338
      5 CAC        16.4690   -5.5260   15.8380 C.ar      1 ORM         0.0686
      6 CAD        17.3040   -4.6650   16.5640 C.ar      1 ORM        -0.0140
      7 CAB        15.1020   -5.5320   16.0100 C.ar      1 ORM        -0.0404
      8 CAA        14.5260   -4.6100   16.8740 C.ar      1 ORM        -0.0597
      9 CAF        15.3430   -3.7610   17.5980 C.ar      1 ORM         0.0503
     10 CLA        14.6250   -2.7090   18.5160 Cl        1 ORM        -0.0829
     11 CAE        16.7320   -3.7720   17.4300 C.ar      1 ORM         0.1087
     12 SAI        17.7740   -2.7040   18.2950 S.o2      1 ORM         0.0656
     13 OAJ        19.1830   -2.8380   17.9050 O.2       1 ORM        -0.1505
     14 OAK        17.5380   -3.1380   19.7900 O.2       1 ORM        -0.1505
     15 NAL        17.2230   -1.1210   18.1880 N.am      1 ORM        -0.2451
     16 CAM        17.0780   -0.4700   16.8500 C.3       1 ORM         0.0322
     17 CAO        15.6050   -0.0810   16.6350 C.3       1 ORM        -0.0456
     18 CAN        17.5950   -1.2270   15.6180 C.3       1 ORM        -0.0456
     19 H1         17.8185   -8.2754   13.7471 H         1 ORM         0.0472
     20 H2         19.5416   -7.7867   13.8835 H         1 ORM         0.0472
     21 H3         18.5469   -7.1969   12.5090 H         1 ORM         0.0472
     22 H4         16.4855   -7.3304   14.8900 H         1 ORM         0.2259
     23 H5         18.3804   -4.7055   16.4422 H         1 ORM         0.0523
     24 H6         14.4845   -6.2467   15.4781 H         1 ORM         0.0503
     25 H7         13.4485   -4.5564   16.9797 H         1 ORM         0.0584
     26 H8         16.9921   -0.6143   19.0186 H         1 ORM         0.1675
     27 H9         17.6647    0.4591   16.9005 H         1 ORM         0.0506
     28 H10        15.4923    0.3987   15.6515 H         1 ORM         0.0248
     29 H11        15.2921    0.6200   17.4229 H         1 ORM         0.0248
     30 H12        14.9775   -0.9835   16.6768 H         1 ORM         0.0248
     31 H13        17.4181   -0.6231   14.7157 H         1 ORM         0.0248
     32 H14        17.0638   -2.1860   15.5273 H         1 ORM         0.0248
     33 H15        18.6733   -1.4141   15.7284 H         1 ORM         0.0248
@<TRIPOS>BOND
     1    1    2 1  
     2    2    3 2  
     3    2    4 am 
     4    4    5 1  
     5    5    6 ar 
     6    5    7 ar 
     7    6   11 ar 
     8    7    8 ar 
     9    8    9 ar 
    10    9   10 1  
    11    9   11 ar 
    12   11   12 1  
    13   12   13 2  
    14   12   14 2  
    15   12   15 am 
    16   15   16 1  
    17   16   17 1  
    18   16   18 1  
    19    1   19 1  
    20    1   20 1  
    21    1   21 1  
    22    4   22 1  
    23    6   23 1  
    24    7   24 1  
    25    8   25 1  
    26   15   26 1  
    27   16   27 1  
    28   17   28 1  
    29   17   29 1  
    30   17   30 1  
    31   18   31 1  
    32   18   32 1  
    33   18   33 1  
@<TRIPOS>SUBSTRUCTURE
     1 ORM         1

