### 
### Created by X-TOOL on Mon Aug  2 16:16:09 2021
### 

@<TRIPOS>MOLECULE
6poh_ligand
   33    34     1     0     0
SMALL
GAST_HUCK


@<TRIPOS>ATOM
      1 C12        18.8830  -12.4920    4.3630 C.2       1 OVG         0.0408
      2 C15        21.1020  -10.5430    3.5210 C.2       1 OVG         0.0738
      3 C01        22.9950   -2.5010    0.7210 C.3       1 OVG        -0.0652
      4 C02        21.4710   -2.2830    0.8550 C.3       1 OVG        -0.0535
      5 C03        20.7010   -3.5820    1.2170 C.3       1 OVG        -0.0255
      6 C04        20.4150   -4.5090   -0.0160 C.3       1 OVG         0.0692
      7 C06        20.8910   -6.8550    0.6300 C.ar      1 OVG         0.0805
      8 C07        19.6120   -7.4150    0.4020 C.ar      1 OVG        -0.0448
      9 C08        19.1910   -8.5930    1.0810 C.ar      1 OVG        -0.0751
     10 C09        19.9910   -9.2780    2.0010 C.ar      1 OVG        -0.0121
     11 C10        19.8710  -10.4940    2.8650 C.2       1 OVG        -0.0236
     12 C11        18.7890  -11.4980    3.0860 C.3       1 OVG         0.0188
     13 C17        21.2680   -8.7020    2.2140 C.ar      1 OVG         0.1112
     14 C18        21.7280   -7.5200    1.5560 C.ar      1 OVG        -0.0046
     15 O05        21.2980   -5.6800   -0.0530 O.3       1 OVG        -0.3233
     16 O13        19.8290  -13.3290    4.3670 O.co2     1 OVG        -0.5673
     17 O14        18.0390  -12.4220    5.3070 O.co2     1 OVG        -0.5673
     18 O16        21.9250   -9.4790    3.1330 O.3       1 OVG        -0.2746
     19 H1         21.3854  -11.3093    4.2410 H         1 OVG         0.0879
     20 H2         23.4806   -1.5478    0.4647 H         1 OVG         0.0230
     21 H3         23.1918   -3.2375   -0.0720 H         1 OVG         0.0230
     22 H4         23.3975   -2.8727    1.6748 H         1 OVG         0.0230
     23 H5         21.0859   -1.9028   -0.1026 H         1 OVG         0.0263
     24 H6         21.2916   -1.5380    1.6441 H         1 OVG         0.0263
     25 H7         19.7392   -3.3008    1.6707 H         1 OVG         0.0291
     26 H8         21.2988   -4.1485    1.9462 H         1 OVG         0.0291
     27 H9         20.5623   -3.9265   -0.9374 H         1 OVG         0.0612
     28 H10        19.3721   -4.8548    0.0365 H         1 OVG         0.0612
     29 H11        18.9403   -6.9382   -0.3027 H         1 OVG         0.0476
     30 H12        18.1993   -8.9790    0.8744 H         1 OVG         0.0539
     31 H13        17.8465  -10.9391    3.1821 H         1 OVG         0.0521
     32 H14        18.7497  -12.1314    2.1876 H         1 OVG         0.0521
     33 H15        22.7184   -7.1330    1.7665 H         1 OVG         0.0466
@<TRIPOS>BOND
     1   12    1 1  
     2    1   16 ar 
     3    1   17 ar 
     4   11    2 2  
     5    2   18 1  
     6    4    3 1  
     7    5    4 1  
     8    6    5 1  
     9   15    6 1  
    10    8    7 ar 
    11    7   14 ar 
    12    7   15 1  
    13    9    8 ar 
    14   10    9 ar 
    15   11   10 1  
    16   10   13 ar 
    17   11   12 1  
    18   13   14 ar 
    19   13   18 1  
    20    2   19 1  
    21    3   20 1  
    22    3   21 1  
    23    3   22 1  
    24    4   23 1  
    25    4   24 1  
    26    5   25 1  
    27    5   26 1  
    28    6   27 1  
    29    6   28 1  
    30    8   29 1  
    31    9   30 1  
    32   12   31 1  
    33   12   32 1  
    34   14   33 1  
@<TRIPOS>SUBSTRUCTURE
     1 OVG         1

