### 
### Created by X-TOOL on Mon Aug  2 16:16:09 2021
### 

@<TRIPOS>MOLECULE
6poq_ligand
   36    38     1     0     0
SMALL
GAST_HUCK


@<TRIPOS>ATOM
      1 C12        18.9650  -11.7000    3.2270 C.ar      1 OVJ         0.0465
      2 C13        19.9480  -11.4780    4.2020 C.ar      1 OVJ        -0.0480
      3 C15        19.1260  -13.2790    5.5700 C.ar      1 OVJ         0.0785
      4 C20        18.9980   -8.8380    0.6750 C.ar      1 OVJ        -0.0516
      5 C21        19.6740   -7.7170    0.2040 C.ar      1 OVJ        -0.0765
      6 C22        20.9780   -7.4830    0.5890 C.ar      1 OVJ        -0.0132
      7 C02        21.6280   -3.9580    0.2830 C.2       1 OVJ         0.0408
      8 C04        22.0100   -5.2640   -0.4830 C.3       1 OVJ         0.0186
      9 C05        22.0120   -6.4850    0.3400 C.2       1 OVJ        -0.0244
     10 C06        23.0820   -6.9080    1.0830 C.2       1 OVJ         0.0730
     11 C08        21.5490   -8.4380    1.4790 C.ar      1 OVJ         0.1092
     12 C09        20.9050   -9.5590    1.9570 C.ar      1 OVJ        -0.0121
     13 C10        19.5890   -9.7780    1.5670 C.ar      1 OVJ         0.0451
     14 C14        20.0280  -12.2460    5.3560 C.ar      1 OVJ        -0.0429
     15 C17        18.7470  -13.3200    7.8240 C.3       1 OVJ         0.0568
     16 C18        18.1390  -13.5300    4.6350 C.ar      1 OVJ        -0.0429
     17 C19        18.0680  -12.7480    3.4860 C.ar      1 OVJ        -0.0480
     18 N11        18.8480  -10.9330    2.0290 N.pl3     1 OVJ        -0.2852
     19 O01        20.4480   -3.8620    0.6740 O.co2     1 OVJ        -0.5673
     20 O03        22.5390   -3.1130    0.4480 O.co2     1 OVJ        -0.5673
     21 O07        22.8290   -8.0900    1.7840 O.3       1 OVJ        -0.2755
     22 O16        19.1910  -14.0300    6.6970 O.3       1 OVJ        -0.3290
     23 H1         20.6679  -10.6820    4.0501 H         1 OVJ         0.0503
     24 H2         17.9774   -9.0032    0.3490 H         1 OVJ         0.0464
     25 H3         19.1754   -7.0264   -0.4665 H         1 OVJ         0.0537
     26 H4         23.0185   -5.1323   -0.9020 H         1 OVJ         0.0521
     27 H5         21.2883   -5.4042   -1.3012 H         1 OVJ         0.0521
     28 H6         24.0323   -6.3776    1.1233 H         1 OVJ         0.0873
     29 H7         21.4115  -10.2515    2.6196 H         1 OVJ         0.0447
     30 H8         20.7967  -12.0383    6.0915 H         1 OVJ         0.0514
     31 H9         18.8160  -13.9636    8.7134 H         1 OVJ         0.0573
     32 H10        17.7017  -13.0117    7.6748 H         1 OVJ         0.0573
     33 H11        19.3754  -12.4286    7.9668 H         1 OVJ         0.0573
     34 H12        17.4256  -14.3302    4.7957 H         1 OVJ         0.0514
     35 H13        17.2887  -12.9566    2.7620 H         1 OVJ         0.0503
     36 H14        18.1123  -11.2555    1.3843 H         1 OVJ         0.2040
@<TRIPOS>BOND
     1    1    2 ar 
     2    1   17 ar 
     3   18    1 1  
     4    2   14 ar 
     5   14    3 ar 
     6    3   16 ar 
     7    3   22 1  
     8    4    5 ar 
     9   13    4 ar 
    10    5    6 ar 
    11    6    9 1  
    12   11    6 ar 
    13    8    7 1  
    14    7   19 ar 
    15    7   20 ar 
    16    9    8 1  
    17   10    9 2  
    18   21   10 1  
    19   12   11 ar 
    20   11   21 1  
    21   13   12 ar 
    22   13   18 1  
    23   22   15 1  
    24   16   17 ar 
    25    2   23 1  
    26    4   24 1  
    27    5   25 1  
    28    8   26 1  
    29    8   27 1  
    30   10   28 1  
    31   12   29 1  
    32   14   30 1  
    33   15   31 1  
    34   15   32 1  
    35   15   33 1  
    36   16   34 1  
    37   17   35 1  
    38   18   36 1  
@<TRIPOS>SUBSTRUCTURE
     1 OVJ         1

