### 
### Created by X-TOOL on Mon Aug  2 16:16:10 2021
### 

@<TRIPOS>MOLECULE
6ppy_ligand
   41    40     1     0     0
SMALL
GAST_HUCK


@<TRIPOS>ATOM
      1 C01       -21.6420   24.8580  -14.5820 C.2       1 OVY         0.1733
      2 C02       -22.8690   25.1710  -15.4620 C.3       1 OVY         0.0257
      3 C03       -20.8180   23.3950  -12.6510 C.3       1 OVY         0.0980
      4 C04       -21.3970   23.4290  -11.2090 C.3       1 OVY         0.1089
      5 C05       -21.8890   24.8310  -10.8220 C.3       1 OVY         0.1112
      6 C06       -22.5880   25.1170   -9.4950 C.3       1 OVY         0.1065
      7 C07       -22.6930   26.6200   -9.2910 C.3       1 OVY         0.0727
      8 C08       -20.4480   21.9520  -13.0670 C.3       1 OVY         0.0910
      9 C09       -19.8090   21.9370  -14.4560 C.3       1 OVY         0.0277
     10 C10       -19.0220   20.7400  -14.9350 C.2       1 OVY         0.0881
     11 C11       -17.5720   20.5340  -14.4800 C.2       1 OVY         0.0774
     12 N01       -21.7960   23.9030  -13.6300 N.am      1 OVY        -0.2789
     13 N02       -19.4730   19.8700  -15.7590 N.2       1 OVY        -0.1610
     14 O01       -20.5490   25.4580  -14.7410 O.2       1 OVY        -0.3974
     15 O02       -20.4150   23.0510  -10.2300 O.3       1 OVY        -0.3868
     16 O03       -20.7670   25.7360  -10.8760 O.3       1 OVY        -0.3865
     17 O04       -23.8790   24.5110   -9.6890 O.3       1 OVY        -0.3869
     18 O05       -23.9370   26.9000   -8.6050 O.3       1 OVY        -0.3924
     19 O06       -21.6410   21.1730  -13.0860 O.3       1 OVY        -0.3873
     20 O07       -17.3010   21.0710  -13.3610 O.co2     1 OVY        -0.5593
     21 O08       -16.8190   19.9090  -15.2270 O.co2     1 OVY        -0.5593
     22 O09       -20.8360   20.0500  -16.2190 O.3       1 OVY        -0.2624
     23 H1        -22.6096   25.9570  -16.1865 H         1 OVY         0.0467
     24 H2        -23.6974   25.5171  -14.8264 H         1 OVY         0.0467
     25 H3        -23.1752   24.2622  -16.0008 H         1 OVY         0.0467
     26 H4        -19.9159   24.0237  -12.6806 H         1 OVY         0.0610
     27 H5        -22.2414   22.7255  -11.1629 H         1 OVY         0.0644
     28 H6        -22.6074   25.1134  -11.6056 H         1 OVY         0.0647
     29 H7        -22.0564   24.6606   -8.6470 H         1 OVY         0.0643
     30 H8        -22.6832   27.1293  -10.2659 H         1 OVY         0.0584
     31 H9        -21.8461   26.9731   -8.6843 H         1 OVY         0.0584
     32 H10       -19.7406   21.5301  -12.3379 H         1 OVY         0.0640
     33 H11       -19.1251   22.7976  -14.4955 H         1 OVY         0.0463
     34 H12       -20.6256   22.0842  -15.1781 H         1 OVY         0.0463
     35 H13       -22.7029   23.4839  -13.5865 H         1 OVY         0.1856
     36 H14       -20.8151   23.0434   -9.3683 H         1 OVY         0.2100
     37 H15       -20.2917   25.6013  -11.6874 H         1 OVY         0.2100
     38 H16       -23.7729   23.5751   -9.8126 H         1 OVY         0.2100
     39 H17       -24.6644   26.5907   -9.1319 H         1 OVY         0.2095
     40 H18       -22.2474   21.5399  -13.7186 H         1 OVY         0.2101
     41 H19       -21.0606   19.3508  -16.8216 H         1 OVY         0.2747
@<TRIPOS>BOND
     1    1    2 1  
     2   12    1 am 
     3    1   14 2  
     4    3    4 1  
     5    3    8 1  
     6    3   12 1  
     7    4    5 1  
     8    4   15 1  
     9    5    6 1  
    10    5   16 1  
    11    6    7 1  
    12    6   17 1  
    13    7   18 1  
    14    8    9 1  
    15    8   19 1  
    16    9   10 1  
    17   10   11 1  
    18   10   13 2  
    19   11   20 ar 
    20   11   21 ar 
    21   13   22 1  
    22    2   23 1  
    23    2   24 1  
    24    2   25 1  
    25    3   26 1  
    26    4   27 1  
    27    5   28 1  
    28    6   29 1  
    29    7   30 1  
    30    7   31 1  
    31    8   32 1  
    32    9   33 1  
    33    9   34 1  
    34   12   35 1  
    35   15   36 1  
    36   16   37 1  
    37   17   38 1  
    38   18   39 1  
    39   19   40 1  
    40   22   41 1  
@<TRIPOS>SUBSTRUCTURE
     1 OVY         1

