### 
### Created by X-TOOL on Mon Sep 10 21:12:47 2018
### 

@<TRIPOS>MOLECULE
6prc_ligand
   32    32     1     0     0
SMALL
GAST_HUCK


@<TRIPOS>ATOM
      1 N1        132.1620   70.8490   -2.7220 N.ar      1 CEB        -0.2288
      2 C2        131.5570   69.7910   -2.2450 C.ar      1 CEB         0.1794
      3 CL2       131.2300   69.8650   -0.5320 Cl        1 CEB        -0.0063
      4 N3        131.1660   68.6770   -2.8340 N.ar      1 CEB        -0.2287
      5 C4        131.4760   68.6810   -4.1640 C.ar      1 CEB         0.1864
      6 N5        132.0950   69.6650   -4.8100 N.ar      1 CEB        -0.2218
      7 C6        132.4120   70.7240   -4.0550 C.ar      1 CEB         0.1844
      8 N7        131.1100   67.5990   -4.8670 N.pl3     1 CEB        -0.2584
      9 C8        130.4050   66.4260   -4.3700 C.3       1 CEB         0.1752
     10 C9        131.1720   65.6720   -3.3290 C.1       1 CEB         0.1223
     11 N9        131.7750   65.0570   -2.5430 N.1       1 CEB        -0.3007
     12 C10       130.2860   65.3830   -5.4860 C.3       1 CEB        -0.0045
     13 C11       128.9030   64.8120   -5.7040 C.3       1 CEB        -0.0608
     14 C12       129.0590   66.8690   -3.7540 C.3       1 CEB        -0.0134
     15 N13       133.0310   71.7780   -4.6260 N.pl3     1 CEB        -0.2869
     16 C14       133.4340   72.9970   -3.9230 C.3       1 CEB         0.0300
     17 C15       133.5770   74.1430   -4.8680 C.3       1 CEB        -0.0441
     18 H         131.3543   67.5977   -5.8676 H         1 CEB         0.1924
     19 H         130.9615   64.5495   -5.2432 H         1 CEB         0.0310
     20 H         130.6089   65.8549   -6.4257 H         1 CEB         0.0310
     21 H         128.9341   64.0785   -6.5231 H         1 CEB         0.0231
     22 H         128.2081   65.6238   -5.9650 H         1 CEB         0.0231
     23 H         128.5607   64.3183   -4.7826 H         1 CEB         0.0231
     24 H         128.5208   65.9872   -3.3763 H         1 CEB         0.0277
     25 H         128.4507   67.3684   -4.5225 H         1 CEB         0.0277
     26 H         129.2472   67.5667   -2.9247 H         1 CEB         0.0277
     27 H         133.2357   71.7205   -5.6338 H         1 CEB         0.1897
     28 H         134.3983   72.8212   -3.4239 H         1 CEB         0.0526
     29 H         132.6715   73.2458   -3.1703 H         1 CEB         0.0526
     30 H         133.8798   75.0419   -4.3110 H         1 CEB         0.0250
     31 H         132.6149   74.3283   -5.3679 H         1 CEB         0.0250
     32 H         134.3417   73.9037   -5.6216 H         1 CEB         0.0250
@<TRIPOS>BOND
     1    1    2 ar 
     2    1    7 ar 
     3    2    3 1  
     4    2    4 ar 
     5    4    5 ar 
     6    5    6 ar 
     7    5    8 1  
     8    6    7 ar 
     9    7   15 1  
    10    8    9 1  
    11    9   10 1  
    12    9   12 1  
    13    9   14 1  
    14   10   11 3  
    15   12   13 1  
    16   15   16 1  
    17   16   17 1  
    18    8   18 1  
    19   12   19 1  
    20   12   20 1  
    21   13   21 1  
    22   13   22 1  
    23   13   23 1  
    24   14   24 1  
    25   14   25 1  
    26   14   26 1  
    27   15   27 1  
    28   16   28 1  
    29   16   29 1  
    30   17   30 1  
    31   17   31 1  
    32   17   32 1  
@<TRIPOS>SUBSTRUCTURE
     1 CEB         1

