### 
### Created by X-TOOL on Mon Aug  2 16:16:10 2021
### 

@<TRIPOS>MOLECULE
6prf_ligand
   88    94     1     0     0
SMALL
GAST_HUCK


@<TRIPOS>ATOM
      1 C06       -18.2390   -4.4870    3.4220 C.ar      1 MOL        -0.0310
      2 C07       -17.9010   -3.7450    2.2930 C.ar      1 MOL        -0.0445
      3 C08       -16.6070   -3.8440    1.7890 C.ar      1 MOL        -0.0310
      4 C1        -17.4220    2.2360   -6.9150 C.2       1 MOL         0.1855
      5 C10       -15.8430   -1.1720    8.7340 C.3       1 MOL        -0.0376
      6 C11       -17.9420   -3.6600    7.2700 C.3       1 MOL         0.0566
      7 C12       -17.9640    2.1930   -0.2210 C.3       1 MOL         0.0319
      8 C13       -18.2140    2.9720    1.0660 C.3       1 MOL        -0.0296
      9 C14       -17.1190    2.7280    2.1110 C.3       1 MOL        -0.0612
     10 C15       -18.2610    4.4470    0.7260 C.3       1 MOL        -0.0612
     11 C16       -19.2540    0.0690    0.1200 C.3       1 MOL         0.0578
     12 C17       -19.4330   -0.2480    1.5930 C.3       1 MOL         0.0967
     13 C19       -18.5120   -1.3470    2.1510 C.3       1 MOL         0.0806
     14 C2        -17.8880    0.8060   -5.2960 C.ar      1 MOL         0.0105
     15 C21       -17.4330   -1.1910    4.3430 C.2       1 MOL         0.3202
     16 C29       -16.4850    4.3400   -9.8030 C.3       1 MOL        -0.0267
     17 C3        -18.4740   -0.2870   -4.6500 C.ar      1 MOL        -0.0614
     18 C32       -18.8990   -2.7640    1.6990 C.3       1 MOL         0.0046
     19 C33       -17.2920   -5.2970    3.9940 C.ar      1 MOL         0.1242
     20 C34       -15.7140   -4.6940    2.3930 C.ar      1 MOL         0.1242
     21 C35       -15.9970   -5.3840    3.5390 C.ar      1 MOL        -0.0019
     22 C36       -15.5190    4.2860   -8.6640 C.3       1 MOL        -0.0267
     23 C39       -16.9260    1.5750   -4.6320 C.ar      1 MOL         0.0513
     24 C4        -18.1130   -0.5670   -3.3430 C.ar      1 MOL        -0.0490
     25 C49       -16.5970   -1.5390    6.5470 C.3       1 MOL         0.0983
     26 C5        -17.1700    0.2120   -2.6920 C.ar      1 MOL         0.0957
     27 C59       -16.6310   -2.9020    7.3000 C.3       1 MOL         0.0208
     28 C6        -16.6130    1.3180   -3.3010 C.ar      1 MOL        -0.0265
     29 C69       -16.4910   -2.5590    8.7990 C.3       1 MOL         0.0182
     30 C7        -17.9550   -2.4090    9.2520 C.3       1 MOL         0.1623
     31 C79       -16.3680    3.1130   -8.9730 C.3       1 MOL         0.0463
     32 C8        -18.0870   -0.2390    8.2260 C.3       1 MOL         0.0562
     33 C9        -16.6940   -0.4820    7.6590 C.3       1 MOL         0.0139
     34 F1        -17.6200   -6.0330    5.0910 F         1 MOL        -0.1863
     35 F2        -14.4620   -4.7740    1.8810 F         1 MOL        -0.1863
     36 N1        -18.1340    1.1850   -6.6090 N.2       1 MOL        -0.3074
     37 N11       -17.9600    0.7160   -0.1240 N.am      1 MOL        -0.2322
     38 N2        -17.5030    2.8070   -8.1330 N.pl3     1 MOL        -0.2764
     39 N20       -18.5460   -1.3390    3.6170 N.am      1 MOL        -0.2550
     40 O1        -18.3620   -1.0570    9.3730 O.3       1 MOL        -0.3506
     41 O10       -15.5770    0.5050   -0.6710 O.2       1 MOL        -0.1512
     42 O18       -20.8140   -0.6060    1.8800 O.3       1 MOL        -0.3877
     43 O2        -18.7590   -3.0290    8.2650 O.3       1 MOL        -0.3506
     44 O22       -16.3200   -0.9120    3.9310 O.2       1 MOL        -0.3775
     45 O23       -17.7240   -1.4450    5.6380 O.3       1 MOL        -0.2599
     46 O9        -17.0580   -1.4720   -0.7030 O.2       1 MOL        -0.1512
     47 S1        -16.3950    2.8910   -5.6260 S.3       1 MOL         0.0286
     48 S8        -16.8470   -0.0800   -0.9800 S.o2      1 MOL         0.0658
     49 H1        -19.2362   -4.4251    3.8425 H         1 MOL         0.0508
     50 H2        -16.3077   -3.2562    0.9288 H         1 MOL         0.0508
     51 H3        -14.7878   -1.2361    8.4302 H         1 MOL         0.0274
     52 H4        -15.9156   -0.6497    9.6994 H         1 MOL         0.0274
     53 H5        -17.7815   -4.7198    7.5170 H         1 MOL         0.0564
     54 H6        -18.4112   -3.5816    6.2782 H         1 MOL         0.0564
     55 H7        -16.9829    2.5023   -0.6106 H         1 MOL         0.0480
     56 H8        -18.7490    2.4760   -0.9377 H         1 MOL         0.0480
     57 H9        -19.1809    2.6617    1.4887 H         1 MOL         0.0311
     58 H10       -17.3420    3.3087    3.0182 H         1 MOL         0.0233
     59 H11       -16.1469    3.0429    1.7039 H         1 MOL         0.0233
     60 H12       -17.0825    1.6574    2.3608 H         1 MOL         0.0233
     61 H13       -19.0458    4.6256   -0.0238 H         1 MOL         0.0233
     62 H14       -17.2880    4.7609    0.3202 H         1 MOL         0.0233
     63 H15       -18.4834    5.0258    1.6346 H         1 MOL         0.0233
     64 H16       -20.0603    0.7436   -0.2036 H         1 MOL         0.0504
     65 H17       -19.3037   -0.8656   -0.4580 H         1 MOL         0.0504
     66 H18       -19.2012    0.6757    2.1435 H         1 MOL         0.0634
     67 H19       -17.4875   -1.1374    1.8098 H         1 MOL         0.0604
     68 H20       -16.1158    4.3417  -10.8392 H         1 MOL         0.0289
     69 H21       -17.3848    4.9688   -9.7332 H         1 MOL         0.0289
     70 H22       -19.2000   -0.9058   -5.1648 H         1 MOL         0.0537
     71 H23       -19.9122   -3.0037    2.0540 H         1 MOL         0.0448
     72 H24       -18.8713   -2.8245    0.6010 H         1 MOL         0.0448
     73 H25       -15.2444   -5.9658    4.0588 H         1 MOL         0.0532
     74 H26       -15.7064    4.8767   -7.7552 H         1 MOL         0.0289
     75 H27       -14.4374    4.2495   -8.8611 H         1 MOL         0.0289
     76 H28       -18.5714   -1.4017   -2.8252 H         1 MOL         0.0565
     77 H29       -15.6589   -1.4253    5.9840 H         1 MOL         0.0655
     78 H30       -15.8135   -3.5423    6.9371 H         1 MOL         0.0356
     79 H31       -15.9452    1.9732   -2.7535 H         1 MOL         0.0577
     80 H32       -15.9203   -3.2877    9.3934 H         1 MOL         0.0354
     81 H33       -18.0882   -2.9113   10.2215 H         1 MOL         0.0912
     82 H34       -15.9180    2.1909   -9.3695 H         1 MOL         0.0569
     83 H35       -18.8297   -0.4632    7.4462 H         1 MOL         0.0564
     84 H36       -18.1698    0.8182    8.5183 H         1 MOL         0.0564
     85 H37       -16.2642    0.4758    7.3306 H         1 MOL         0.0352
     86 H38       -18.4401    3.0418   -8.4903 H         1 MOL         0.1935
     87 H39       -19.4230   -1.4469    4.0852 H         1 MOL         0.1873
     88 H40       -21.0166   -1.4375    1.4677 H         1 MOL         0.2100
@<TRIPOS>BOND
     1    2    1 ar 
     2    1   19 ar 
     3    2    3 ar 
     4   18    2 1  
     5    3   20 ar 
     6    4   36 2  
     7    4   38 1  
     8   47    4 1  
     9    5   29 1  
    10   33    5 1  
    11   27    6 1  
    12    6   43 1  
    13    7    8 1  
    14   37    7 1  
    15    8    9 1  
    16    8   10 1  
    17   11   12 1  
    18   37   11 1  
    19   12   13 1  
    20   12   42 1  
    21   13   18 1  
    22   13   39 1  
    23   17   14 ar 
    24   23   14 ar 
    25   14   36 1  
    26   39   15 am 
    27   15   44 2  
    28   15   45 1  
    29   22   16 1  
    30   31   16 1  
    31   24   17 ar 
    32   19   21 ar 
    33   19   34 1  
    34   20   21 ar 
    35   20   35 1  
    36   31   22 1  
    37   28   23 ar 
    38   23   47 1  
    39   26   24 ar 
    40   25   27 1  
    41   25   33 1  
    42   45   25 1  
    43   26   28 ar 
    44   48   26 1  
    45   27   29 1  
    46   29   30 1  
    47   40   30 1  
    48   30   43 1  
    49   38   31 1  
    50   33   32 1  
    51   32   40 1  
    52   37   48 am 
    53   48   41 2  
    54   48   46 2  
    55    1   49 1  
    56    3   50 1  
    57    5   51 1  
    58    5   52 1  
    59    6   53 1  
    60    6   54 1  
    61    7   55 1  
    62    7   56 1  
    63    8   57 1  
    64    9   58 1  
    65    9   59 1  
    66    9   60 1  
    67   10   61 1  
    68   10   62 1  
    69   10   63 1  
    70   11   64 1  
    71   11   65 1  
    72   12   66 1  
    73   13   67 1  
    74   16   68 1  
    75   16   69 1  
    76   17   70 1  
    77   18   71 1  
    78   18   72 1  
    79   21   73 1  
    80   22   74 1  
    81   22   75 1  
    82   24   76 1  
    83   25   77 1  
    84   27   78 1  
    85   28   79 1  
    86   29   80 1  
    87   30   81 1  
    88   31   82 1  
    89   32   83 1  
    90   32   84 1  
    91   33   85 1  
    92   38   86 1  
    93   39   87 1  
    94   42   88 1  
@<TRIPOS>SUBSTRUCTURE
     1 MOL         1

