### 
### Created by X-TOOL on Sat Aug  7 21:31:20 2021
### 

@<TRIPOS>MOLECULE
6prg_ligand
   87    90     1     0     0
SMALL
GAST_HUCK


@<TRIPOS>ATOM
      1 C1         -0.1450   17.9880   -1.1650 C.3       1 SUC502      0.1912
      2 C2          1.0540   17.7960   -0.2320 C.3       1 SUC502      0.1342
      3 C3          2.2010   17.0840   -0.9490 C.3       1 SUC502      0.1141
      4 C4          1.7220   15.7870   -1.5960 C.3       1 SUC502      0.1119
      5 C5          0.4730   16.0190   -2.4530 C.3       1 SUC502      0.1134
      6 C6         -0.1040   14.6970   -2.9460 C.3       1 SUC502      0.0796
      7 O1          0.1920   18.9270   -2.1960 O.3       1 SUC502     -0.3125
      8 O2          1.5010   19.0670    0.2530 O.3       1 SUC502     -0.3841
      9 O3          3.2550   16.7960   -0.0230 O.3       1 SUC502     -0.3864
     10 O4          2.7730   15.2540   -2.4100 O.3       1 SUC502     -0.3865
     11 O5         -0.5420   16.7260   -1.7250 O.3       1 SUC502     -0.3404
     12 O6          0.6970   14.2240   -4.0340 O.3       1 SUC502     -0.3460
     13 C1'        -1.1410   20.8810   -1.5330 C.3       1 SUC502      0.1009
     14 C2'        -0.8330   19.8420   -2.6130 C.3       1 SUC502      0.2252
     15 C3'        -0.3660   20.5210   -3.8970 C.3       1 SUC502      0.1395
     16 C4'        -1.0690   19.7710   -5.0100 C.3       1 SUC502      0.1145
     17 C5'        -2.3520   19.3060   -4.3470 C.3       1 SUC502      0.1134
     18 C6'        -2.8910   18.0180   -4.9570 C.3       1 SUC502      0.0730
     19 O1'         0.0670   21.3230   -0.9000 O.3       1 SUC502     -0.3896
     20 O2'        -2.0390   19.1420   -2.9580 O.3       1 SUC502     -0.3362
     21 O3'         1.0570   20.4590   -4.0440 O.3       1 SUC502     -0.3837
     22 O4'        -1.3510   20.6220   -6.1230 O.3       1 SUC502     -0.3864
     23 O6'        -2.1370   16.8890   -4.5030 O.3       1 SUC502     -0.3924
     24 C1          0.5680   12.7940   -4.1430 C.3       1 GLA503      0.1880
     25 C2          1.8810   12.1860   -4.6370 C.3       1 GLA503      0.1341
     26 C3          2.1330   12.5710   -6.0960 C.3       1 GLA503      0.1141
     27 C4          0.9240   12.2460   -6.9760 C.3       1 GLA503      0.1119
     28 C5         -0.3610   12.8140   -6.3630 C.3       1 GLA503      0.1134
     29 C6         -1.6090   12.4260   -7.1540 C.3       1 GLA503      0.0796
     30 O2          2.9700   12.6260   -3.8180 O.3       1 GLA503     -0.3841
     31 O3          3.2990   11.8990   -6.5850 O.3       1 GLA503     -0.3864
     32 O4          0.8110   10.8280   -7.1460 O.3       1 GLA503     -0.3865
     33 O5         -0.5060   12.3880   -5.0000 O.3       1 GLA503     -0.3405
     34 O6         -2.5650   13.4840   -7.0250 O.3       1 GLA503     -0.3460
     35 C1         -3.8770   12.9550   -6.7430 C.3       1 GLA504      0.1880
     36 C2         -4.9260   14.0050   -7.1030 C.3       1 GLA504      0.1341
     37 C3         -4.8440   15.1780   -6.1250 C.3       1 GLA504      0.1141
     38 C4         -4.9640   14.6990   -4.6760 C.3       1 GLA504      0.1119
     39 C5         -3.9590   13.5730   -4.3980 C.3       1 GLA504      0.1130
     40 C6         -4.1160   12.9840   -2.9970 C.3       1 GLA504      0.0730
     41 O2         -4.7190   14.4680   -8.4410 O.3       1 GLA504     -0.3841
     42 O3         -5.8540   16.1500   -6.4230 O.3       1 GLA504     -0.3864
     43 O4         -6.3040   14.2580   -4.4200 O.3       1 GLA504     -0.3865
     44 O5         -4.0660   12.5290   -5.3840 O.3       1 GLA504     -0.3405
     45 O6         -5.2590   12.1210   -2.9470 O.3       1 GLA504     -0.3924
     46 H1         -0.9863   18.3923   -0.5830 H         1 SUC502      0.0939
     47 H2          0.7382   17.1801    0.6230 H         1 SUC502      0.0671
     48 H3          2.5892   17.7480   -1.7354 H         1 SUC502      0.0648
     49 H4          1.4771   15.0643   -0.8037 H         1 SUC502      0.0647
     50 H5          0.7634   16.6234   -3.3250 H         1 SUC502      0.0647
     51 H6         -1.1387   14.8489   -3.2869 H         1 SUC502      0.0587
     52 H7         -0.0914   13.9601   -2.1294 H         1 SUC502      0.0587
     53 H8          1.7938   19.5985   -0.4780 H         1 SUC502      0.2101
     54 H9          3.5518   17.6042    0.3786 H         1 SUC502      0.2100
     55 H10         2.4918   14.4290   -2.7881 H         1 SUC502      0.2100
     56 H11        -1.8019   20.4319   -0.7771 H         1 SUC502      0.0612
     57 H12        -1.6442   21.7437   -1.9941 H         1 SUC502      0.0612
     58 H13        -0.6753   21.5766   -3.8985 H         1 SUC502      0.0675
     59 H14        -0.4662   18.9156   -5.3489 H         1 SUC502      0.0648
     60 H15        -3.1205   20.0850   -4.4590 H         1 SUC502      0.0647
     61 H16        -2.8221   18.0811   -6.0530 H         1 SUC502      0.0584
     62 H17        -3.9432   17.8916   -4.6623 H         1 SUC502      0.0584
     63 H18         0.5028   20.5804   -0.4985 H         1 SUC502      0.2096
     64 H19         1.3374   19.5516   -4.0211 H         1 SUC502      0.2101
     65 H20        -0.5351   20.9005   -6.5219 H         1 SUC502      0.2100
     66 H21        -2.1965   16.8297   -3.5568 H         1 SUC502      0.2095
     67 H22         0.3608   12.4000   -3.1371 H         1 GLA503      0.0937
     68 H23         1.8086   11.0905   -4.5692 H         1 GLA503      0.0671
     69 H24         2.3102   13.6557   -6.1414 H         1 GLA503      0.0648
     70 H25         1.0741   12.7080   -7.9629 H         1 GLA503      0.0647
     71 H26        -0.2802   13.9110   -6.3750 H         1 GLA503      0.0647
     72 H27        -2.0298   11.4925   -6.7521 H         1 GLA503      0.0587
     73 H28        -1.3498   12.2851   -8.2137 H         1 GLA503      0.0587
     74 H29         3.7788   12.2416   -4.1352 H         1 GLA503      0.2101
     75 H30         4.0506   12.1493   -6.0607 H         1 GLA503      0.2100
     76 H31         0.0587   10.6347   -7.6930 H         1 GLA503      0.2100
     77 H32        -4.0263   12.0765   -7.3879 H         1 GLA504      0.0937
     78 H33        -5.9252   13.5504   -7.0333 H         1 GLA504      0.0671
     79 H34        -3.8607   15.6561   -6.2459 H         1 GLA504      0.0648
     80 H35        -4.7376   15.5419   -4.0064 H         1 GLA504      0.0647
     81 H36        -2.9499   14.0052   -4.4685 H         1 GLA504      0.0647
     82 H37        -4.2459   13.8010   -2.2720 H         1 GLA504      0.0584
     83 H38        -3.2144   12.4076   -2.7422 H         1 GLA504      0.0584
     84 H39        -4.7901   13.7363   -9.0426 H         1 GLA504      0.2101
     85 H40        -5.7896   16.8709   -5.8076 H         1 GLA504      0.2100
     86 H41        -6.9063   14.9784   -4.5643 H         1 GLA504      0.2100
     87 H42        -5.3452   11.7619   -2.0718 H         1 GLA504      0.2095
@<TRIPOS>BOND
     1   12   24 1  
     2   34   35 1  
     3    2    1 1  
     4    1    7 1  
     5    1   11 1  
     6    2    3 1  
     7    2    8 1  
     8    3    4 1  
     9    3    9 1  
    10    4    5 1  
    11    4   10 1  
    12    5    6 1  
    13   11    5 1  
    14    6   12 1  
    15    7   14 1  
    16   14   13 1  
    17   13   19 1  
    18   14   15 1  
    19   14   20 1  
    20   15   16 1  
    21   15   21 1  
    22   16   17 1  
    23   16   22 1  
    24   17   18 1  
    25   17   20 1  
    26   18   23 1  
    27   33   28 1  
    28   33   24 1  
    29   28   27 1  
    30   27   26 1  
    31   26   25 1  
    32   25   24 1  
    33   27   32 1  
    34   26   31 1  
    35   25   30 1  
    36   28   29 1  
    37   29   34 1  
    38   44   39 1  
    39   44   35 1  
    40   39   38 1  
    41   38   37 1  
    42   37   36 1  
    43   36   35 1  
    44   38   43 1  
    45   37   42 1  
    46   36   41 1  
    47   39   40 1  
    48   40   45 1  
    49    1   46 1  
    50    2   47 1  
    51    3   48 1  
    52    4   49 1  
    53    5   50 1  
    54    6   51 1  
    55    6   52 1  
    56    8   53 1  
    57    9   54 1  
    58   10   55 1  
    59   13   56 1  
    60   13   57 1  
    61   15   58 1  
    62   16   59 1  
    63   17   60 1  
    64   18   61 1  
    65   18   62 1  
    66   19   63 1  
    67   21   64 1  
    68   22   65 1  
    69   23   66 1  
    70   24   67 1  
    71   25   68 1  
    72   26   69 1  
    73   27   70 1  
    74   28   71 1  
    75   29   72 1  
    76   29   73 1  
    77   30   74 1  
    78   31   75 1  
    79   32   76 1  
    80   35   77 1  
    81   36   78 1  
    82   37   79 1  
    83   38   80 1  
    84   39   81 1  
    85   40   82 1  
    86   40   83 1  
    87   41   84 1  
    88   42   85 1  
    89   43   86 1  
    90   45   87 1  
@<TRIPOS>SUBSTRUCTURE
     1 SUC502      1

