### 
### Created by X-TOOL on Mon Aug  2 16:16:10 2021
### 

@<TRIPOS>MOLECULE
6prt_ligand
   25    25     1     0     0
SMALL
GAST_HUCK


@<TRIPOS>ATOM
      1 C02       -14.3310    4.7810    0.0570 C.2       1 OWA         0.1787
      2 C04       -12.8660    3.2730    1.4460 C.3       1 OWA         0.0226
      3 C05       -12.2330    5.6890    0.6410 C.3       1 OWA         0.0406
      4 C06       -12.8230    6.6010   -0.4890 C.3       1 OWA         0.0144
      5 C07       -12.0270    6.4530   -1.8310 C.3       1 OWA         0.0554
      6 C08       -10.7090    7.1570   -1.8330 C.2       1 OWA         0.2339
      7 C10        -8.3370    7.1890   -0.9970 C.3       1 OWA         0.0658
      8 C12       -14.2570    6.1690   -0.5060 C.3       1 OWA         0.0442
      9 N03       -13.1290    4.5080    0.7340 N.am      1 OWA        -0.2757
     10 O01       -15.2660    4.0160   -0.0060 O.2       1 OWA        -0.3969
     11 O09        -9.6450    6.4520   -1.2810 O.3       1 OWA        -0.2802
     12 O11       -10.4990    8.2600   -2.2580 O.2       1 OWA        -0.3704
     13 H1        -11.8584    3.3107    1.8856 H         1 OWA         0.0486
     14 H2        -12.9296    2.4261    0.7470 H         1 OWA         0.0486
     15 H3        -13.6104    3.1451    2.2457 H         1 OWA         0.0486
     16 H4        -12.2166    6.2309    1.5981 H         1 OWA         0.0528
     17 H5        -11.2120    5.3729    0.3811 H         1 OWA         0.0528
     18 H6        -12.7676    7.6586   -0.1918 H         1 OWA         0.0370
     19 H7        -12.6411    6.8650   -2.6454 H         1 OWA         0.0523
     20 H8        -11.8484    5.3828   -2.0117 H         1 OWA         0.0523
     21 H9         -7.6076    6.4881   -0.5650 H         1 OWA         0.0577
     22 H10        -8.5241    8.0075   -0.2864 H         1 OWA         0.0577
     23 H11        -7.9376    7.6019   -1.9351 H         1 OWA         0.0577
     24 H12       -14.8601    6.8535    0.1086 H         1 OWA         0.0507
     25 H13       -14.6356    6.1734   -1.5388 H         1 OWA         0.0507
@<TRIPOS>BOND
     1    1    8 1  
     2    9    1 am 
     3    1   10 2  
     4    9    2 1  
     5    3    4 1  
     6    3    9 1  
     7    4    5 1  
     8    4    8 1  
     9    5    6 1  
    10    6   11 1  
    11    6   12 2  
    12   11    7 1  
    13    2   13 1  
    14    2   14 1  
    15    2   15 1  
    16    3   16 1  
    17    3   17 1  
    18    4   18 1  
    19    5   19 1  
    20    5   20 1  
    21    7   21 1  
    22    7   22 1  
    23    7   23 1  
    24    8   24 1  
    25    8   25 1  
@<TRIPOS>SUBSTRUCTURE
     1 OWA         1

