### 
### Created by X-TOOL on Mon Aug  2 16:11:24 2021
### 

@<TRIPOS>MOLECULE
6ps0_ligand
   45    47     1     0     0
SMALL
GAST_HUCK


@<TRIPOS>ATOM
      1 O17         3.3330    6.0330   48.5390 O.3       1 CAU        -0.3838
      2 C16         3.2180    4.9350   49.3910 C.3       1 CAU         0.1223
      3 C18         3.1260    5.3190   50.8730 C.3       1 CAU        -0.0042
      4 N19         2.4510    6.5950   51.0610 N.4       1 CAU         0.2307
      5 C20         2.1620    6.8440   52.4650 C.3       1 CAU        -0.0283
      6 C21         2.9090    8.0990   52.9160 C.3       1 CAU        -0.0219
      7 C22         0.6650    7.0880   52.6550 C.3       1 CAU        -0.0219
      8 C15         2.0330    4.0840   48.9670 C.3       1 CAU         0.1017
      9 O14         2.5620    2.8430   48.5980 O.3       1 CAU        -0.3164
     10 C13         1.6290    1.8050   48.4340 C.ar      1 CAU         0.0888
     11 C12         0.9820    1.6450   47.2080 C.ar      1 CAU        -0.0456
     12 C11         0.1050    0.5830   46.9990 C.ar      1 CAU        -0.0822
     13 C10        -0.1210   -0.3380   48.0190 C.ar      1 CAU        -0.0516
     14 C8          0.5450   -0.2020   49.2560 C.ar      1 CAU         0.0581
     15 C9          1.4220    0.8480   49.4680 C.ar      1 CAU         0.0281
     16 N7          0.5040   -0.9730   50.3930 N.pl3     1 CAU        -0.2769
     17 C3          1.3480   -0.4220   51.3240 C.ar      1 CAU         0.0636
     18 C4          1.9290    0.7020   50.7590 C.ar      1 CAU        -0.0056
     19 C2          1.6450   -0.8020   52.6520 C.ar      1 CAU        -0.0415
     20 C1          2.5430   -0.0370   53.3920 C.ar      1 CAU        -0.0742
     21 C6          3.1360    1.0980   52.8290 C.ar      1 CAU        -0.0762
     22 C5          2.8480    1.4680   51.5150 C.ar      1 CAU        -0.0700
     23 H1          2.5727    6.5933   48.6419 H         1 CAU         0.2101
     24 H2          4.1280    4.3288   49.2707 H         1 CAU         0.0674
     25 H3          4.1430    5.3902   51.2860 H         1 CAU         0.0840
     26 H4          2.5665    4.5381   51.4089 H         1 CAU         0.0840
     27 H5          1.5852    6.5866   50.5450 H         1 CAU         0.2017
     28 H6          3.0427    7.3330   50.7126 H         1 CAU         0.2017
     29 H7          2.4792    5.9798   53.0671 H         1 CAU         0.0845
     30 H8          2.6940    8.2921   53.9774 H         1 CAU         0.0284
     31 H9          2.5799    8.9582   52.3131 H         1 CAU         0.0284
     32 H10         3.9906    7.9499   52.7822 H         1 CAU         0.0284
     33 H11         0.4561    7.2752   53.7186 H         1 CAU         0.0284
     34 H12         0.1039    6.2026   52.3215 H         1 CAU         0.0284
     35 H13         0.3577    7.9618   52.0617 H         1 CAU         0.0284
     36 H14         1.5152    4.5475   48.1143 H         1 CAU         0.0643
     37 H15         1.3286    3.9657   49.8035 H         1 CAU         0.0643
     38 H16         1.1639    2.3550   46.4093 H         1 CAU         0.0434
     39 H17        -0.3997    0.4738   46.0459 H         1 CAU         0.0544
     40 H18        -0.8095   -1.1606   47.8626 H         1 CAU         0.0441
     41 H19        -0.0647   -1.8217   50.5242 H         1 CAU         0.2156
     42 H20         1.1797   -1.6780   53.0893 H         1 CAU         0.0536
     43 H21         2.7838   -0.3225   54.4096 H         1 CAU         0.0559
     44 H22         3.8239    1.6941   53.4177 H         1 CAU         0.0514
     45 H23         3.3251    2.3367   51.0759 H         1 CAU         0.0563
@<TRIPOS>BOND
     1    1    2 1  
     2    2    3 1  
     3    2    8 1  
     4    3    4 1  
     5    4    5 1  
     6    5    6 1  
     7    5    7 1  
     8    8    9 1  
     9    9   10 1  
    10   10   11 ar 
    11   10   15 ar 
    12   11   12 ar 
    13   12   13 ar 
    14   13   14 ar 
    15   14   15 ar 
    16   14   16 1  
    17   15   18 1  
    18   16   17 1  
    19   17   18 ar 
    20   17   19 ar 
    21   18   22 ar 
    22   19   20 ar 
    23   20   21 ar 
    24   21   22 ar 
    25    1   23 1  
    26    2   24 1  
    27    3   25 1  
    28    3   26 1  
    29    4   27 1  
    30    4   28 1  
    31    5   29 1  
    32    6   30 1  
    33    6   31 1  
    34    6   32 1  
    35    7   33 1  
    36    7   34 1  
    37    7   35 1  
    38    8   36 1  
    39    8   37 1  
    40   11   38 1  
    41   12   39 1  
    42   13   40 1  
    43   16   41 1  
    44   19   42 1  
    45   20   43 1  
    46   21   44 1  
    47   22   45 1  
@<TRIPOS>SUBSTRUCTURE
     1 CAU         1

