### 
### Created by X-TOOL on Mon Aug  2 16:11:24 2021
### 

@<TRIPOS>MOLECULE
6ps1_ligand
   46    47     1     0     0
SMALL
GAST_HUCK


@<TRIPOS>ATOM
      1 C5          3.1240    1.0990   50.7900 C.3       1 TIM         0.0580
      2 C6          2.9990    1.4190   52.2730 C.3       1 TIM         0.0685
      3 O1          2.4800    0.2780   52.9890 O.3       1 TIM        -0.3757
      4 C2          1.1780   -0.1350   52.5220 C.3       1 TIM         0.0685
      5 C3          1.2030   -0.4950   51.0400 C.3       1 TIM         0.0580
      6 N4          1.8730    0.5460   50.2480 N.pl3     1 TIM        -0.2703
      7 C7          1.3680    0.9260   49.0130 C.2       1 TIM         0.1977
      8 N8          0.9580    0.0250   48.0990 N.2       1 TIM        -0.2438
      9 S9          0.4460    0.9060   46.7700 S.3       1 TIM         0.0065
     10 N10         0.7260    2.4540   47.3050 N.2       1 TIM        -0.2269
     11 C11         1.2360    2.2960   48.5340 C.2       1 TIM         0.2407
     12 O12         1.5610    3.4400   49.2050 O.3       1 TIM        -0.2738
     13 C13         2.6560    4.1570   48.6090 C.3       1 TIM         0.1108
     14 C14         3.1690    5.2890   49.4990 C.3       1 TIM         0.1234
     15 O15         3.3930    6.4260   48.6660 O.3       1 TIM        -0.3837
     16 C16         2.2710    5.6480   50.7030 C.3       1 TIM        -0.0039
     17 N17         2.7440    6.8930   51.3690 N.4       1 TIM         0.2326
     18 C18         2.4440    7.1830   52.8080 C.3       1 TIM        -0.0203
     19 C19         0.9600    7.2720   53.0730 C.3       1 TIM        -0.0193
     20 C20         3.0370    6.0650   53.6870 C.3       1 TIM        -0.0193
     21 C21         3.0110    8.5220   53.3030 C.3       1 TIM        -0.0193
     22 H1          3.9296    0.3632   50.6502 H         1 TIM         0.0551
     23 H2          3.3718    2.0220   50.2453 H         1 TIM         0.0551
     24 H3          2.3160    2.2712   52.4042 H         1 TIM         0.0580
     25 H4          3.9902    1.6785   52.6732 H         1 TIM         0.0580
     26 H5          0.4650    0.6880   52.6777 H         1 TIM         0.0580
     27 H6          0.8543   -1.0145   53.0979 H         1 TIM         0.0580
     28 H7          0.1693   -0.6081   50.6814 H         1 TIM         0.0551
     29 H8          1.7418   -1.4453   50.9113 H         1 TIM         0.0551
     30 H9          2.3188    4.5850   47.6534 H         1 TIM         0.0656
     31 H10         3.4803    3.4523   48.4246 H         1 TIM         0.0656
     32 H11         4.1370    4.9688   49.9118 H         1 TIM         0.0675
     33 H12         2.5775    6.6766   48.2481 H         1 TIM         0.2102
     34 H13         2.2940    4.8212   51.4281 H         1 TIM         0.0840
     35 H14         1.2399    5.7981   50.3506 H         1 TIM         0.0840
     36 H15         2.3599    7.6602   50.8399 H         1 TIM         0.2020
     37 H16         3.7484    6.8954   51.2835 H         1 TIM         0.2020
     38 H17         0.7900    7.4855   54.1386 H         1 TIM         0.0287
     39 H18         0.4825    6.3166   52.8097 H         1 TIM         0.0287
     40 H19         0.5264    8.0788   52.4638 H         1 TIM         0.0287
     41 H20         2.8184    6.2751   54.7444 H         1 TIM         0.0287
     42 H21         4.1262    6.0213   53.5395 H         1 TIM         0.0287
     43 H22         2.5898    5.1005   53.4048 H         1 TIM         0.0287
     44 H23         2.7501    8.6614   54.3625 H         1 TIM         0.0287
     45 H24         2.5836    9.3432   52.7090 H         1 TIM         0.0287
     46 H25         4.1054    8.5202   53.1921 H         1 TIM         0.0287
@<TRIPOS>BOND
     1    1    2 1  
     2    1    6 1  
     3    2    3 1  
     4    3    4 1  
     5    4    5 1  
     6    5    6 1  
     7    6    7 1  
     8    7    8 2  
     9    7   11 1  
    10    8    9 1  
    11    9   10 1  
    12   10   11 2  
    13   11   12 1  
    14   12   13 1  
    15   13   14 1  
    16   14   15 1  
    17   14   16 1  
    18   16   17 1  
    19   17   18 1  
    20   18   19 1  
    21   18   20 1  
    22   18   21 1  
    23    1   22 1  
    24    1   23 1  
    25    2   24 1  
    26    2   25 1  
    27    4   26 1  
    28    4   27 1  
    29    5   28 1  
    30    5   29 1  
    31   13   30 1  
    32   13   31 1  
    33   14   32 1  
    34   15   33 1  
    35   16   34 1  
    36   16   35 1  
    37   17   36 1  
    38   17   37 1  
    39   19   38 1  
    40   19   39 1  
    41   19   40 1  
    42   20   41 1  
    43   20   42 1  
    44   20   43 1  
    45   21   44 1  
    46   21   45 1  
    47   21   46 1  
@<TRIPOS>SUBSTRUCTURE
     1 TIM         1

