### 
### Created by X-TOOL on Mon Aug  2 16:11:25 2021
### 

@<TRIPOS>MOLECULE
6ps3_ligand
   57    60     1     0     0
SMALL
GAST_HUCK


@<TRIPOS>ATOM
      1 O1          3.5290    6.4830   49.8080 O.3       1 CVD        -0.3838
      2 C1          3.1150    5.3680   50.5460 C.3       1 CVD         0.1223
      3 C2          2.3410    4.4200   49.6360 C.3       1 CVD         0.1017
      4 O2          2.5230    3.1050   50.0980 O.3       1 CVD        -0.3164
      5 C3          1.6910    2.0890   49.5840 C.ar      1 CVD         0.0888
      6 C14         1.2000    2.1180   48.3440 C.ar      1 CVD        -0.0456
      7 C13         0.3330    0.9570   47.8190 C.ar      1 CVD        -0.0822
      8 C12         0.0720   -0.0890   48.5960 C.ar      1 CVD        -0.0516
      9 C6          0.6500   -0.1410   50.0080 C.ar      1 CVD         0.0581
     10 C4          1.4110    0.8630   50.4600 C.ar      1 CVD         0.0281
     11 C5          1.8160    0.4790   51.9470 C.ar      1 CVD        -0.0056
     12 C8          2.6510    1.1800   53.0220 C.ar      1 CVD        -0.0700
     13 C11         2.7850    0.6110   54.2160 C.ar      1 CVD        -0.0762
     14 C10         2.1540   -0.7640   54.4930 C.ar      1 CVD        -0.0742
     15 C9          1.4070   -1.3560   53.5730 C.ar      1 CVD        -0.0415
     16 C7          1.2480   -0.7110   52.1980 C.ar      1 CVD         0.0636
     17 N1          0.5540   -1.0710   51.0410 N.pl3     1 CVD        -0.2769
     18 C15         2.2180    5.7840   51.7200 C.3       1 CVD        -0.0043
     19 N2          2.8760    6.8100   52.5010 N.4       1 CVD         0.2308
     20 C16         2.1150    7.1460   53.6870 C.3       1 CVD        -0.0055
     21 C17         2.5410    8.5350   54.1800 C.3       1 CVD         0.1075
     22 O3          3.9430    8.6140   54.2210 O.3       1 CVD        -0.3165
     23 C18         4.5180    9.8270   54.6420 C.ar      1 CVD         0.1200
     24 C23         5.0620   10.6370   53.7350 C.ar      1 CVD        -0.0415
     25 C22         5.7240   11.9540   54.1650 C.ar      1 CVD        -0.0819
     26 C21         5.7740   12.2710   55.4510 C.ar      1 CVD        -0.0819
     27 C20         5.1620   11.3350   56.5060 C.ar      1 CVD        -0.0415
     28 C19         4.6050   10.1800   56.1490 C.ar      1 CVD         0.1194
     29 O4          4.0240    9.3520   57.1420 O.3       1 CVD        -0.3250
     30 C24         4.6870    8.1530   57.4700 C.3       1 CVD         0.0569
     31 H1          2.7675    6.9295   49.4568 H         1 CVD         0.2101
     32 H2          4.0024    4.8510   50.9399 H         1 CVD         0.0674
     33 H3          2.7170    4.5060   48.6058 H         1 CVD         0.0643
     34 H4          1.2714    4.6758   49.6585 H         1 CVD         0.0643
     35 H5          1.4124    2.9644   47.7009 H         1 CVD         0.0434
     36 H6         -0.0656    0.9938   46.8116 H         1 CVD         0.0544
     37 H7         -0.5472   -0.8999   48.2297 H         1 CVD         0.0441
     38 H8          3.1280    2.1304   52.8117 H         1 CVD         0.0563
     39 H9          3.3407    1.1177   54.9967 H         1 CVD         0.0514
     40 H10         2.3215   -1.2515   55.4466 H         1 CVD         0.0559
     41 H11         0.9109   -2.2939   53.7952 H         1 CVD         0.0536
     42 H12         0.0183   -1.9469   50.9585 H         1 CVD         0.2156
     43 H13         2.0221    4.9093   52.3576 H         1 CVD         0.0840
     44 H14         1.2662    6.1752   51.3315 H         1 CVD         0.0840
     45 H15         2.9802    7.6368   51.9339 H         1 CVD         0.2015
     46 H16         3.7856    6.4766   52.7793 H         1 CVD         0.2015
     47 H17         2.3090    6.4009   54.4726 H         1 CVD         0.0840
     48 H18         1.0417    7.1539   53.4461 H         1 CVD         0.0840
     49 H19         2.1357    8.7052   55.1883 H         1 CVD         0.0663
     50 H20         2.1516    9.3017   53.4940 H         1 CVD         0.0663
     51 H21         5.0371   10.3644   52.6861 H         1 CVD         0.0509
     52 H22         6.1476   12.6200   53.4219 H         1 CVD         0.0495
     53 H23         6.2489   13.1950   55.7605 H         1 CVD         0.0495
     54 H24         5.1844   11.6188   57.5520 H         1 CVD         0.0509
     55 H25         4.1207    7.6223   58.2495 H         1 CVD         0.0573
     56 H26         5.6965    8.3821   57.8420 H         1 CVD         0.0573
     57 H27         4.7614    7.5183   56.5746 H         1 CVD         0.0573
@<TRIPOS>BOND
     1    1    2 1  
     2    2    3 1  
     3    2   18 1  
     4    3    4 1  
     5    4    5 1  
     6    5    6 ar 
     7    5   10 ar 
     8    6    7 ar 
     9    7    8 ar 
    10    8    9 ar 
    11    9   10 ar 
    12    9   17 1  
    13   10   11 1  
    14   11   12 ar 
    15   11   16 ar 
    16   12   13 ar 
    17   13   14 ar 
    18   14   15 ar 
    19   15   16 ar 
    20   16   17 1  
    21   18   19 1  
    22   19   20 1  
    23   20   21 1  
    24   21   22 1  
    25   22   23 1  
    26   23   24 ar 
    27   23   28 ar 
    28   24   25 ar 
    29   25   26 ar 
    30   26   27 ar 
    31   27   28 ar 
    32   28   29 1  
    33   29   30 1  
    34    1   31 1  
    35    2   32 1  
    36    3   33 1  
    37    3   34 1  
    38    6   35 1  
    39    7   36 1  
    40    8   37 1  
    41   12   38 1  
    42   13   39 1  
    43   14   40 1  
    44   15   41 1  
    45   17   42 1  
    46   18   43 1  
    47   18   44 1  
    48   19   45 1  
    49   19   46 1  
    50   20   47 1  
    51   20   48 1  
    52   21   49 1  
    53   21   50 1  
    54   24   51 1  
    55   25   52 1  
    56   26   53 1  
    57   27   54 1  
    58   30   55 1  
    59   30   56 1  
    60   30   57 1  
@<TRIPOS>SUBSTRUCTURE
     1 CVD         1

