### 
### Created by X-TOOL on Mon Aug  2 16:11:25 2021
### 

@<TRIPOS>MOLECULE
6ps4_ligand
   48    49     1     0     0
SMALL
GAST_HUCK


@<TRIPOS>ATOM
      1 C1          1.5890   -0.2440   51.0000 C.3       1 JRZ        -0.0252
      2 N1          2.8180    7.7520   51.9140 N.4       1 JRZ         0.2326
      3 O1          3.1110    3.9060   49.3280 O.3       1 JRZ        -0.3252
      4 C2          2.2640    0.6430   52.0440 C.3       1 JRZ        -0.0385
      5 O2          3.6420    7.3700   49.4260 O.3       1 JRZ        -0.3836
      6 C3          3.0620    1.6760   51.2470 C.3       1 JRZ        -0.0237
      7 C4          2.2210    1.8150   50.0090 C.ar      1 JRZ        -0.0182
      8 C5          1.3820    0.7180   49.8600 C.ar      1 JRZ        -0.0473
      9 C6          0.4820    0.6400   48.7620 C.ar      1 JRZ        -0.0611
     10 C7         -0.4700   -0.5110   48.5760 C.3       1 JRZ        -0.0402
     11 C8          0.4600    1.7010   47.8320 C.ar      1 JRZ        -0.0822
     12 C9          1.2900    2.8120   47.9890 C.ar      1 JRZ        -0.0528
     13 C10         2.1840    2.8810   49.0900 C.ar      1 JRZ         0.0795
     14 C11         2.7220    5.2440   49.0040 C.3       1 JRZ         0.0983
     15 C12         3.3580    6.1350   50.0700 C.3       1 JRZ         0.1243
     16 C13         2.6070    6.3280   51.4220 C.3       1 JRZ         0.0038
     17 C14         1.0990    6.0300   51.3880 C.3       1 JRZ        -0.0191
     18 C15         2.9010    8.0840   53.3900 C.3       1 JRZ        -0.0281
     19 C16         3.9640    9.1740   53.5600 C.3       1 JRZ        -0.0219
     20 C17         1.5470    8.6530   53.8290 C.3       1 JRZ        -0.0219
     21 H1          0.6308   -0.6382   51.3695 H         1 JRZ         0.0395
     22 H2          2.2400   -1.0800   50.7045 H         1 JRZ         0.0395
     23 H3          2.0534    8.2951   51.5446 H         1 JRZ         0.2020
     24 H4          3.6831    8.0676   51.5041 H         1 JRZ         0.2020
     25 H5          2.9345    0.0464   52.6799 H         1 JRZ         0.0302
     26 H6          1.5099    1.1404   52.6715 H         1 JRZ         0.0302
     27 H7          2.8344    7.7479   49.0981 H         1 JRZ         0.2102
     28 H8          4.0705    1.3075   51.0082 H         1 JRZ         0.0388
     29 H9          3.1390    2.6298   51.7895 H         1 JRZ         0.0388
     30 H10        -1.0622   -0.3531   47.6625 H         1 JRZ         0.0354
     31 H11        -1.1436   -0.5736   49.4434 H         1 JRZ         0.0354
     32 H12         0.1000   -1.4475   48.4861 H         1 JRZ         0.0354
     33 H13        -0.2118    1.6524   46.9827 H         1 JRZ         0.0456
     34 H14         1.2521    3.6225   47.2702 H         1 JRZ         0.0450
     35 H15         1.6265    5.3405   49.0286 H         1 JRZ         0.0636
     36 H16         3.0920    5.5188   48.0052 H         1 JRZ         0.0636
     37 H17         4.3175    5.6675   50.3360 H         1 JRZ         0.0677
     38 H18         3.0602    5.6368   52.1478 H         1 JRZ         0.0874
     39 H19         0.9364    5.0016   51.0332 H         1 JRZ         0.0285
     40 H20         0.6010    6.7358   50.7070 H         1 JRZ         0.0285
     41 H21         0.6807    6.1393   52.3995 H         1 JRZ         0.0285
     42 H22         3.1577    7.1914   53.9794 H         1 JRZ         0.0845
     43 H23         4.0500    9.4395   54.6240 H         1 JRZ         0.0284
     44 H24         3.6725   10.0637   52.9826 H         1 JRZ         0.0284
     45 H25         4.9327    8.8015   53.1956 H         1 JRZ         0.0284
     46 H26         1.5837    8.9019   54.8998 H         1 JRZ         0.0284
     47 H27         0.7603    7.9045   53.6533 H         1 JRZ         0.0284
     48 H28         1.3253    9.5610   53.2490 H         1 JRZ         0.0284
@<TRIPOS>BOND
     1    1    4 1  
     2    8    1 1  
     3   16    2 1  
     4    2   18 1  
     5    3   13 1  
     6   14    3 1  
     7    6    4 1  
     8   15    5 1  
     9    7    6 1  
    10    7    8 ar 
    11   13    7 ar 
    12    8    9 ar 
    13    9   10 1  
    14   11    9 ar 
    15   12   11 ar 
    16   13   12 ar 
    17   15   14 1  
    18   15   16 1  
    19   16   17 1  
    20   18   19 1  
    21   18   20 1  
    22    1   21 1  
    23    1   22 1  
    24    2   23 1  
    25    2   24 1  
    26    4   25 1  
    27    4   26 1  
    28    5   27 1  
    29    6   28 1  
    30    6   29 1  
    31   10   30 1  
    32   10   31 1  
    33   10   32 1  
    34   11   33 1  
    35   12   34 1  
    36   14   35 1  
    37   14   36 1  
    38   15   37 1  
    39   16   38 1  
    40   17   39 1  
    41   17   40 1  
    42   17   41 1  
    43   18   42 1  
    44   19   43 1  
    45   19   44 1  
    46   19   45 1  
    47   20   46 1  
    48   20   47 1  
    49   20   48 1  
@<TRIPOS>SUBSTRUCTURE
     1 JRZ         1

