### 
### Created by X-TOOL on Mon Aug  2 16:11:25 2021
### 

@<TRIPOS>MOLECULE
6ps5_ligand
   41    42     1     0     0
SMALL
GAST_HUCK


@<TRIPOS>ATOM
      1 C1          1.9150    1.7230   49.7180 C.ar      1 SNP         0.1044
      2 C2          1.2010    1.5090   48.5220 C.ar      1 SNP        -0.0340
      3 C3          0.3990    0.3830   48.3640 C.ar      1 SNP        -0.0744
      4 C4          0.2910   -0.5450   49.3900 C.ar      1 SNP        -0.0685
      5 C5          0.8830   -1.3100   51.6060 C.ar      1 SNP        -0.0587
      6 C6          1.5730   -1.1570   52.8000 C.ar      1 SNP        -0.0640
      7 C7          2.3890   -0.0530   52.9850 C.ar      1 SNP        -0.0633
      8 C8          2.5140    0.9020   51.9800 C.ar      1 SNP        -0.0532
      9 C9          1.8230    0.7700   50.7590 C.ar      1 SNP         0.0178
     10 C10         0.9940   -0.3640   50.5840 C.ar      1 SNP        -0.0261
     11 O1          2.7740    2.8150   49.9380 O.3       1 SNP        -0.3102
     12 C11         2.3460    4.1310   49.5590 C.3       1 SNP         0.1032
     13 C12         3.1080    5.1120   50.4370 C.3       1 SNP         0.1226
     14 O2          3.5660    6.2010   49.6320 O.3       1 SNP        -0.3838
     15 C13         2.2110    5.5720   51.6030 C.3       1 SNP        -0.0042
     16 N1          2.6760    6.8160   52.2440 N.4       1 SNP         0.2307
     17 C14         2.2610    6.9330   53.6600 C.3       1 SNP        -0.0283
     18 C15         3.3470    7.7090   54.4030 C.3       1 SNP        -0.0219
     19 C16         0.9160    7.6400   53.8810 C.3       1 SNP        -0.0219
     20 H1          1.2775    2.2298   47.7160 H         1 SNP         0.0499
     21 H2         -0.1426    0.2304   47.4375 H         1 SNP         0.0581
     22 H3         -0.3425   -1.4156   49.2645 H         1 SNP         0.0493
     23 H4          0.2480   -2.1770   51.4640 H         1 SNP         0.0599
     24 H5          1.4739   -1.8982   53.5847 H         1 SNP         0.0614
     25 H6          2.9320    0.0676   53.9154 H         1 SNP         0.0591
     26 H7          3.1541    1.7622   52.1394 H         1 SNP         0.0631
     27 H8          1.2636    4.2387   49.7224 H         1 SNP         0.0646
     28 H9          2.5768    4.3135   48.4991 H         1 SNP         0.0646
     29 H10         3.9862    4.6026   50.8605 H         1 SNP         0.0675
     30 H11         2.8200    6.6371   49.2371 H         1 SNP         0.2101
     31 H12         2.1896    4.7758   52.3617 H         1 SNP         0.0840
     32 H13         1.1945    5.7377   51.2166 H         1 SNP         0.0840
     33 H14         2.2990    7.5995   51.7340 H         1 SNP         0.2017
     34 H15         3.6828    6.8409   52.2022 H         1 SNP         0.2017
     35 H16         2.1847    5.9190   54.0794 H         1 SNP         0.0845
     36 H17         3.0651    7.8119   55.4613 H         1 SNP         0.0284
     37 H18         3.4567    8.7072   53.9540 H         1 SNP         0.0284
     38 H19         4.3011    7.1666   54.3288 H         1 SNP         0.0284
     39 H20         0.6945    7.6783   54.9578 H         1 SNP         0.0284
     40 H21         0.1204    7.0848   53.3626 H         1 SNP         0.0284
     41 H22         0.9696    8.6633   53.4811 H         1 SNP         0.0284
@<TRIPOS>BOND
     1    2    1 ar 
     2    1    9 ar 
     3    1   11 1  
     4    3    2 ar 
     5    4    3 ar 
     6   10    4 ar 
     7    5    6 ar 
     8    5   10 ar 
     9    6    7 ar 
    10    7    8 ar 
    11    8    9 ar 
    12    9   10 ar 
    13   11   12 1  
    14   12   13 1  
    15   13   14 1  
    16   13   15 1  
    17   15   16 1  
    18   16   17 1  
    19   17   18 1  
    20   17   19 1  
    21    2   20 1  
    22    3   21 1  
    23    4   22 1  
    24    5   23 1  
    25    6   24 1  
    26    7   25 1  
    27    8   26 1  
    28   12   27 1  
    29   12   28 1  
    30   13   29 1  
    31   14   30 1  
    32   15   31 1  
    33   15   32 1  
    34   16   33 1  
    35   16   34 1  
    36   17   35 1  
    37   18   36 1  
    38   18   37 1  
    39   18   38 1  
    40   19   39 1  
    41   19   40 1  
    42   19   41 1  
@<TRIPOS>SUBSTRUCTURE
     1 SNP         1

