### 
### Created by X-TOOL on Mon Aug  2 16:11:26 2021
### 

@<TRIPOS>MOLECULE
6ps6_ligand
   46    47     1     0     0
SMALL
GAST_HUCK


@<TRIPOS>ATOM
      1 C5          3.2190    1.5140   50.8040 C.3       1 TIM         0.0580
      2 C6          3.1400    1.7370   52.3040 C.3       1 TIM         0.0685
      3 O1          2.7510    0.5100   52.9550 O.3       1 TIM        -0.3757
      4 C2          1.4390    0.0750   52.5500 C.3       1 TIM         0.0685
      5 C3          1.3440   -0.1310   51.0420 C.3       1 TIM         0.0580
      6 N4          1.9740    0.9510   50.2730 N.pl3     1 TIM        -0.2703
      7 C7          1.4410    1.3370   49.0550 C.2       1 TIM         0.1977
      8 N8          0.9490    0.4430   48.1800 N.2       1 TIM        -0.2438
      9 S9          0.4180    1.3080   46.8540 S.3       1 TIM         0.0065
     10 N10         0.8040    2.8470   47.3360 N.2       1 TIM        -0.2269
     11 C11         1.3630    2.6950   48.5450 C.2       1 TIM         0.2407
     12 O12         1.7640    3.8350   49.1850 O.3       1 TIM        -0.2738
     13 C13         2.8650    4.5290   48.5680 C.3       1 TIM         0.1108
     14 C14         3.3280    5.7000   49.4340 C.3       1 TIM         0.1234
     15 O15         3.5570    6.8190   48.5810 O.3       1 TIM        -0.3837
     16 C16         2.3830    6.0590   50.6050 C.3       1 TIM        -0.0039
     17 N17         2.8720    7.2290   51.3830 N.4       1 TIM         0.2326
     18 C18         2.5460    7.3590   52.8410 C.3       1 TIM        -0.0203
     19 C19         1.0650    7.2900   53.2440 C.3       1 TIM        -0.0193
     20 C20         3.2770    6.3240   53.6640 C.3       1 TIM        -0.0193
     21 C21         3.0640    8.7320   53.2940 C.3       1 TIM        -0.0193
     22 H1          4.0442    0.8189   50.5899 H         1 TIM         0.0551
     23 H2          3.4136    2.4774   50.3102 H         1 TIM         0.0551
     24 H3          2.3957    2.5178   52.5195 H         1 TIM         0.0580
     25 H4          4.1239    2.0547   52.6794 H         1 TIM         0.0580
     26 H5          0.7041    0.8361   52.8511 H         1 TIM         0.0580
     27 H6          1.2093   -0.8758   53.0532 H         1 TIM         0.0580
     28 H7          0.2817   -0.1870   50.7623 H         1 TIM         0.0551
     29 H8          1.8411   -1.0782   50.7858 H         1 TIM         0.0551
     30 H9          2.5453    4.9111   47.5873 H         1 TIM         0.0656
     31 H10         3.7020    3.8281   48.4333 H         1 TIM         0.0656
     32 H11         4.2904    5.4137   49.8833 H         1 TIM         0.0675
     33 H12         2.7508    7.0429   48.1310 H         1 TIM         0.2102
     34 H13         2.3079    5.1923   51.2782 H         1 TIM         0.0840
     35 H14         1.3885    6.2947   50.1983 H         1 TIM         0.0840
     36 H15         2.5055    8.0515   50.9300 H         1 TIM         0.2020
     37 H16         3.8774    7.2252   51.3104 H         1 TIM         0.2020
     38 H17         0.9764    7.3990   54.3350 H         1 TIM         0.0287
     39 H18         0.6463    6.3202   52.9373 H         1 TIM         0.0287
     40 H19         0.5119    8.1014   52.7484 H         1 TIM         0.0287
     41 H20         3.0155    6.4480   54.7253 H         1 TIM         0.0287
     42 H21         4.3619    6.4533   53.5362 H         1 TIM         0.0287
     43 H22         2.9858    5.3173   53.3298 H         1 TIM         0.0287
     44 H23         2.8456    8.8718   54.3630 H         1 TIM         0.0287
     45 H24         2.5667    9.5218   52.7119 H         1 TIM         0.0287
     46 H25         4.1506    8.7858   53.1317 H         1 TIM         0.0287
@<TRIPOS>BOND
     1    1    2 1  
     2    1    6 1  
     3    2    3 1  
     4    3    4 1  
     5    4    5 1  
     6    5    6 1  
     7    6    7 1  
     8    7    8 2  
     9    7   11 1  
    10    8    9 1  
    11    9   10 1  
    12   10   11 2  
    13   11   12 1  
    14   12   13 1  
    15   13   14 1  
    16   14   15 1  
    17   14   16 1  
    18   16   17 1  
    19   17   18 1  
    20   18   19 1  
    21   18   20 1  
    22   18   21 1  
    23    1   22 1  
    24    1   23 1  
    25    2   24 1  
    26    2   25 1  
    27    4   26 1  
    28    4   27 1  
    29    5   28 1  
    30    5   29 1  
    31   13   30 1  
    32   13   31 1  
    33   14   32 1  
    34   15   33 1  
    35   16   34 1  
    36   16   35 1  
    37   17   36 1  
    38   17   37 1  
    39   19   38 1  
    40   19   39 1  
    41   19   40 1  
    42   20   41 1  
    43   20   42 1  
    44   20   43 1  
    45   21   44 1  
    46   21   45 1  
    47   21   46 1  
@<TRIPOS>SUBSTRUCTURE
     1 TIM         1

