### 
### Created by X-TOOL on Mon Aug  2 16:16:10 2021
### 

@<TRIPOS>MOLECULE
6ps9_ligand
   44    47     1     0     0
SMALL
GAST_HUCK


@<TRIPOS>ATOM
      1 C01        13.1700    3.0760   -1.7200 C.3       1 Y17         0.0226
      2 C03        14.5240    4.6170   -0.1300 C.2       1 Y17         0.1785
      3 C04        14.2530    5.8980    0.6460 C.3       1 Y17         0.0421
      4 C05        12.7510    5.9300    0.7150 C.3       1 Y17        -0.0013
      5 C06        12.2220    7.4040    0.7770 C.3       1 Y17        -0.0194
      6 C07        12.4080    8.1210    2.1070 C.3       1 Y17         0.0554
      7 C09        10.9570    6.5680    3.5730 C.ar      1 Y17         0.0672
      8 C10         9.7340    6.5120    2.8430 C.ar      1 Y17        -0.0454
      9 C11         8.7070    5.7260    3.3420 C.ar      1 Y17        -0.0788
     10 C12         8.8610    4.9980    4.5400 C.ar      1 Y17        -0.0817
     11 C13        10.0570    5.0650    5.2580 C.ar      1 Y17        -0.0776
     12 C14        11.1350    5.8610    4.7750 C.ar      1 Y17        -0.0175
     13 C15        12.5020    6.1460    5.2160 C.2       1 Y17         0.0481
     14 C16        13.0700    7.0000    4.2970 C.2       1 Y17         0.0748
     15 C17        14.4680    7.5060    4.4260 C.3       1 Y17         0.0339
     16 C18        14.9250    7.5160    5.8790 C.3       1 Y17         0.0444
     17 C20        13.2470    5.6980    6.3720 C.2       1 Y17         0.1691
     18 C22        12.3470    5.1630   -0.6000 C.3       1 Y17         0.0385
     19 N02        13.4120    4.2380   -0.8240 N.am      1 Y17        -0.2759
     20 N08        12.1610    7.2610    3.2930 N.pl3     1 Y17        -0.2494
     21 N19        14.4720    6.3270    6.6560 N.am      1 Y17        -0.2914
     22 O21        12.8920    4.7590    7.0920 O.2       1 Y17        -0.4099
     23 O23        15.5650    3.9710   -0.1520 O.2       1 Y17        -0.3969
     24 H1         12.1371    3.1123   -2.0966 H         1 Y17         0.0486
     25 H2         13.3231    2.1423   -1.1590 H         1 Y17         0.0486
     26 H3         13.8707    3.1140   -2.5671 H         1 Y17         0.0486
     27 H4         14.6444    6.7761    0.1115 H         1 Y17         0.0506
     28 H5         14.6956    5.8537    1.6521 H         1 Y17         0.0506
     29 H6         12.3864    5.3889    1.6006 H         1 Y17         0.0346
     30 H7         11.1455    7.3857    0.5515 H         1 Y17         0.0296
     31 H8         12.7486    7.9840    0.0048 H         1 Y17         0.0296
     32 H9         11.7099    8.9703    2.1434 H         1 Y17         0.0603
     33 H10        13.4417    8.4935    2.1583 H         1 Y17         0.0603
     34 H11         9.6103    7.0695    1.9216 H         1 Y17         0.0538
     35 H12         7.7689    5.6699    2.8018 H         1 Y17         0.0509
     36 H13         8.0466    4.3830    4.9055 H         1 Y17         0.0509
     37 H14        10.1650    4.5109    6.1834 H         1 Y17         0.0511
     38 H15        14.5155    8.5308    4.0291 H         1 Y17         0.0523
     39 H16        15.1386    6.8562    3.8447 H         1 Y17         0.0523
     40 H17        14.5262    8.4199    6.3627 H         1 Y17         0.0548
     41 H18        16.0245    7.5450    5.8975 H         1 Y17         0.0548
     42 H19        12.2569    5.8622   -1.4444 H         1 Y17         0.0526
     43 H20        11.3943    4.6309   -0.4612 H         1 Y17         0.0526
     44 H21        15.0488    5.9710    7.3912 H         1 Y17         0.1830
@<TRIPOS>BOND
     1   19    1 1  
     2    3    2 1  
     3    2   19 am 
     4    2   23 2  
     5    4    3 1  
     6    5    4 1  
     7    4   18 1  
     8    6    5 1  
     9   20    6 1  
    10    7    8 ar 
    11    7   12 ar 
    12    7   20 1  
    13    8    9 ar 
    14    9   10 ar 
    15   10   11 ar 
    16   11   12 ar 
    17   12   13 1  
    18   13   14 2  
    19   13   17 1  
    20   14   15 1  
    21   14   20 1  
    22   15   16 1  
    23   16   21 1  
    24   17   21 am 
    25   17   22 2  
    26   18   19 1  
    27    1   24 1  
    28    1   25 1  
    29    1   26 1  
    30    3   27 1  
    31    3   28 1  
    32    4   29 1  
    33    5   30 1  
    34    5   31 1  
    35    6   32 1  
    36    6   33 1  
    37    8   34 1  
    38    9   35 1  
    39   10   36 1  
    40   11   37 1  
    41   15   38 1  
    42   15   39 1  
    43   16   40 1  
    44   16   41 1  
    45   18   42 1  
    46   18   43 1  
    47   21   44 1  
@<TRIPOS>SUBSTRUCTURE
     1 Y17         1

