### 
### Created by X-TOOL on Mon Aug  2 16:16:10 2021
### 

@<TRIPOS>MOLECULE
6psb_ligand
   41    44     1     0     0
SMALL
GAST_HUCK


@<TRIPOS>ATOM
      1 C02        17.2670  -15.3880   -3.4040 C.2       1 Y18         0.1691
      2 C04        18.6210  -17.1730   -4.6520 C.3       1 Y18         0.0444
      3 C05        18.2850  -16.4140   -5.8870 C.3       1 Y18         0.0339
      4 C06        17.6100  -14.4880   -4.4630 C.2       1 Y18         0.0481
      5 C07        18.0930  -15.0160   -5.6840 C.2       1 Y18         0.0748
      6 C09        18.7850  -13.8530   -7.9330 C.3       1 Y18         0.0617
      7 C10        17.6210  -14.1530   -9.0670 C.3       1 Y18         0.0229
      8 C11        16.6470  -12.9870   -9.1140 C.3       1 Y18         0.0409
      9 C13        14.3570  -12.8000  -10.2110 C.3       1 Y18         0.0226
     10 C14        15.4570  -15.0380   -9.4610 C.2       1 Y18         0.1786
     11 C15        16.7920  -15.4410   -8.7770 C.3       1 Y18         0.0445
     12 C17        17.9480  -12.7340   -5.9060 C.ar      1 Y18         0.0672
     13 C18        17.5090  -13.1120   -4.6260 C.ar      1 Y18        -0.0175
     14 C19        17.1060  -12.1010   -3.7630 C.ar      1 Y18        -0.0776
     15 C20        17.1600  -10.8000   -4.2100 C.ar      1 Y18        -0.0817
     16 C21        17.6040  -10.4560   -5.5150 C.ar      1 Y18        -0.0788
     17 C22        17.9900  -11.4200   -6.3880 C.ar      1 Y18        -0.0454
     18 N03        17.7200  -16.7630   -3.5430 N.am      1 Y18        -0.2914
     19 N08        18.2680  -13.9630   -6.5430 N.pl3     1 Y18        -0.2489
     20 N12        15.4190  -13.6500   -9.6570 N.am      1 Y18        -0.2758
     21 O01        16.5570  -15.0560   -2.4610 O.2       1 Y18        -0.4099
     22 O16        14.5570  -15.7770   -9.7870 O.2       1 Y18        -0.3969
     23 H1         19.6638  -16.9662   -4.3696 H         1 Y18         0.0548
     24 H2         18.4990  -18.2497   -4.8414 H         1 Y18         0.0548
     25 H3         17.3576  -16.8315   -6.3061 H         1 Y18         0.0523
     26 H4         19.1056  -16.5477   -6.6072 H         1 Y18         0.0523
     27 H5         19.1721  -12.8348   -8.0857 H         1 Y18         0.0608
     28 H6         19.6008  -14.5790   -8.0643 H         1 Y18         0.0608
     29 H7         18.1115  -14.2618  -10.0455 H         1 Y18         0.0371
     30 H8         17.0042  -12.1911   -9.7840 H         1 Y18         0.0527
     31 H9         16.4694  -12.5703   -8.1116 H         1 Y18         0.0527
     32 H10        13.5294  -13.4318  -10.5660 H         1 Y18         0.0486
     33 H11        14.7573  -12.2139  -11.0514 H         1 Y18         0.0486
     34 H12        13.9888  -12.1178   -9.4306 H         1 Y18         0.0486
     35 H13        16.6654  -15.6146   -7.6982 H         1 Y18         0.0507
     36 H14        17.2398  -16.3318   -9.2417 H         1 Y18         0.0507
     37 H15        16.7577  -12.3306   -2.7625 H         1 Y18         0.0511
     38 H16        16.8514  -10.0062   -3.5394 H         1 Y18         0.0509
     39 H17        17.6346   -9.4149   -5.8155 H         1 Y18         0.0509
     40 H18        18.3112  -11.1873   -7.3968 H         1 Y18         0.0538
     41 H19        17.4190  -17.4470   -2.8785 H         1 Y18         0.1830
@<TRIPOS>BOND
     1    4    1 1  
     2    1   18 am 
     3    1   21 2  
     4    3    2 1  
     5    2   18 1  
     6    5    3 1  
     7    5    4 2  
     8    4   13 1  
     9   19    5 1  
    10    6    7 1  
    11    6   19 1  
    12    7    8 1  
    13    7   11 1  
    14    8   20 1  
    15   20    9 1  
    16   11   10 1  
    17   10   20 am 
    18   10   22 2  
    19   13   12 ar 
    20   12   17 ar 
    21   12   19 1  
    22   13   14 ar 
    23   14   15 ar 
    24   15   16 ar 
    25   16   17 ar 
    26    2   23 1  
    27    2   24 1  
    28    3   25 1  
    29    3   26 1  
    30    6   27 1  
    31    6   28 1  
    32    7   29 1  
    33    8   30 1  
    34    8   31 1  
    35    9   32 1  
    36    9   33 1  
    37    9   34 1  
    38   11   35 1  
    39   11   36 1  
    40   14   37 1  
    41   15   38 1  
    42   16   39 1  
    43   17   40 1  
    44   18   41 1  
@<TRIPOS>SUBSTRUCTURE
     1 Y18         1

