### 
### Created by X-TOOL on Mon Aug  2 16:16:11 2021
### 

@<TRIPOS>MOLECULE
6pt3_ligand
   77    80     1     0     0
SMALL
GAST_HUCK


@<TRIPOS>ATOM
      1 CBI         2.4380  -40.2500  -54.7940 C.3       1 OWY        -0.0447
      2 CBG         1.7940  -39.5550  -53.5960 C.3       1 OWY         0.0304
      3 NBF         2.0070  -40.2040  -52.4380 N.am      1 OWY        -0.2739
      4 CBH         1.1440  -41.2010  -52.1070 C.3       1 OWY         0.0304
      5 CBJ        -0.1380  -40.8030  -51.3270 C.3       1 OWY        -0.0447
      6 CBD         3.0820  -39.8350  -51.6770 C.2       1 OWY         0.2025
      7 OBE         3.7910  -38.9350  -52.0480 O.2       1 OWY        -0.3876
      8 CAZ         3.4850  -40.4720  -50.3920 C.ar      1 OWY         0.0431
      9 CBA         4.6470  -41.2700  -50.3400 C.ar      1 OWY        -0.0480
     10 CBB         5.0700  -41.8430  -49.1230 C.ar      1 OWY        -0.0471
     11 CAY         2.7870  -40.1950  -49.2050 C.ar      1 OWY        -0.0480
     12 CAX         3.1900  -40.7800  -47.9960 C.ar      1 OWY        -0.0471
     13 CAR         4.3490  -41.5900  -47.9380 C.ar      1 OWY         0.0203
     14 CAP         4.7920  -42.2210  -46.6610 C.3       1 OWY         0.0463
     15 CAQ         3.7740  -43.2220  -46.2490 C.ar      1 OWY         0.0078
     16 CAS         3.8640  -44.4970  -46.8120 C.ar      1 OWY        -0.0250
     17 CAT         2.8970  -45.4680  -46.5210 C.ar      1 OWY         0.0815
     18 OBC         2.9930  -46.6920  -47.1220 O.3       1 OWY        -0.3348
     19 CAU         1.8470  -45.1860  -45.6330 C.ar      1 OWY        -0.0400
     20 CAV         1.7360  -43.9040  -45.0720 C.ar      1 OWY        -0.0766
     21 CAW         2.6910  -42.9220  -45.3880 C.ar      1 OWY        -0.0639
     22 NAK         5.1400  -41.2650  -45.5940 N.4       1 OWY         0.2707
     23 CAJ         5.6980  -41.8580  -44.3860 C.3       1 OWY         0.0206
     24 CAI         5.6450  -40.7620  -43.2900 C.3       1 OWY         0.0138
     25 CAO         7.0920  -42.5110  -44.5060 C.3       1 OWY        -0.0165
     26 CAL         5.9820  -40.1300  -46.0710 C.3       1 OWY         0.0156
     27 CAM         5.8240  -38.9830  -45.0230 C.3       1 OWY         0.0189
     28 CAN         4.4030  -38.4130  -45.1200 C.3       1 OWY        -0.0166
     29 NAH         6.2180  -39.4710  -43.6980 N.4       1 OWY         0.2567
     30 CAG         6.0230  -38.4110  -42.6560 C.3       1 OWY         0.0026
     31 CAB         6.5190  -38.7010  -41.2890 C.ar      1 OWY         0.0014
     32 CAA         5.6830  -38.4070  -40.1900 C.ar      1 OWY        -0.0553
     33 CAF         6.1120  -38.6640  -38.8690 C.ar      1 OWY        -0.0684
     34 CAE         7.3950  -39.1860  -38.6320 C.ar      1 OWY        -0.0687
     35 CAD         8.2480  -39.4510  -39.7240 C.ar      1 OWY        -0.0684
     36 CAC         7.8170  -39.2090  -41.0480 C.ar      1 OWY        -0.0553
     37 H1          2.2295  -39.6740  -55.7077 H         1 OWY         0.0249
     38 H2          2.0229  -41.2634  -54.8968 H         1 OWY         0.0249
     39 H3          3.5254  -40.3130  -54.6404 H         1 OWY         0.0249
     40 H4          0.7095  -39.4915  -53.7683 H         1 OWY         0.0519
     41 H5          2.2120  -38.5410  -53.5120 H         1 OWY         0.0519
     42 H6          1.6959  -41.9241  -51.4885 H         1 OWY         0.0519
     43 H7          0.8251  -41.6858  -53.0415 H         1 OWY         0.0519
     44 H8         -0.7397  -41.7020  -51.1275 H         1 OWY         0.0249
     45 H9         -0.7268  -40.0934  -51.9269 H         1 OWY         0.0249
     46 H10         0.1441  -40.3317  -50.3740 H         1 OWY         0.0249
     47 H11         5.2199  -41.4443  -51.2436 H         1 OWY         0.0653
     48 H12         5.9486  -42.4774  -49.0985 H         1 OWY         0.0575
     49 H13         1.9338  -39.5266  -49.2236 H         1 OWY         0.0653
     50 H14         2.6082  -40.6102  -47.0972 H         1 OWY         0.0575
     51 H15         5.7166  -42.7740  -46.8831 H         1 OWY         0.1188
     52 H16         4.6858  -44.7363  -47.4771 H         1 OWY         0.0484
     53 H17         2.2753  -47.2429  -46.8324 H         1 OWY         0.2479
     54 H18         1.1252  -45.9547  -45.3816 H         1 OWY         0.0488
     55 H19         0.9184  -43.6725  -44.3989 H         1 OWY         0.0573
     56 H20         2.5974  -41.9267  -44.9689 H         1 OWY         0.0471
     57 H21         4.2623  -40.8571  -45.3123 H         1 OWY         0.2074
     58 H22         5.0161  -42.6666  -44.0839 H         1 OWY         0.0902
     59 H23         6.2016  -41.1243  -42.4131 H         1 OWY         0.0871
     60 H24         4.5923  -40.6002  -43.0150 H         1 OWY         0.0871
     61 H25         7.3923  -42.9165  -43.5286 H         1 OWY         0.0286
     62 H26         7.8237  -41.7564  -44.8303 H         1 OWY         0.0286
     63 H27         7.0531  -43.3253  -45.2445 H         1 OWY         0.0286
     64 H28         5.6370  -39.7910  -47.0590 H         1 OWY         0.0871
     65 H29         7.0351  -40.4407  -46.1371 H         1 OWY         0.0871
     66 H30         6.5186  -38.1724  -45.2884 H         1 OWY         0.0902
     67 H31         4.2817  -37.6036  -44.3850 H         1 OWY         0.0286
     68 H32         3.6734  -39.2095  -44.9120 H         1 OWY         0.0286
     69 H33         4.2350  -38.0171  -46.1324 H         1 OWY         0.0286
     70 H34         7.2118  -39.6292  -43.7552 H         1 OWY         0.2055
     71 H35         4.9430  -38.2162  -42.5810 H         1 OWY         0.0980
     72 H36         6.5358  -37.5037  -43.0078 H         1 OWY         0.0980
     73 H37         4.7017  -37.9796  -40.3617 H         1 OWY         0.0558
     74 H38         5.4498  -38.4580  -38.0359 H         1 OWY         0.0599
     75 H39         7.7264  -39.3833  -37.6189 H         1 OWY         0.0559
     76 H40         9.2426  -39.8436  -39.5460 H         1 OWY         0.0599
     77 H41         8.4817  -39.4129  -41.8796 H         1 OWY         0.0558
@<TRIPOS>BOND
     1    1    2 1  
     2    2    3 1  
     3    3    4 1  
     4    3    6 am 
     5    4    5 1  
     6    6    7 2  
     7    6    8 1  
     8    8    9 ar 
     9    8   11 ar 
    10    9   10 ar 
    11   10   13 ar 
    12   11   12 ar 
    13   12   13 ar 
    14   13   14 1  
    15   14   15 1  
    16   14   22 1  
    17   15   16 ar 
    18   15   21 ar 
    19   16   17 ar 
    20   17   18 1  
    21   17   19 ar 
    22   19   20 ar 
    23   20   21 ar 
    24   22   23 1  
    25   22   26 1  
    26   23   24 1  
    27   23   25 1  
    28   24   29 1  
    29   26   27 1  
    30   27   28 1  
    31   27   29 1  
    32   29   30 1  
    33   30   31 1  
    34   31   32 ar 
    35   31   36 ar 
    36   32   33 ar 
    37   33   34 ar 
    38   34   35 ar 
    39   35   36 ar 
    40    1   37 1  
    41    1   38 1  
    42    1   39 1  
    43    2   40 1  
    44    2   41 1  
    45    4   42 1  
    46    4   43 1  
    47    5   44 1  
    48    5   45 1  
    49    5   46 1  
    50    9   47 1  
    51   10   48 1  
    52   11   49 1  
    53   12   50 1  
    54   14   51 1  
    55   16   52 1  
    56   18   53 1  
    57   19   54 1  
    58   20   55 1  
    59   21   56 1  
    60   22   57 1  
    61   23   58 1  
    62   24   59 1  
    63   24   60 1  
    64   25   61 1  
    65   25   62 1  
    66   25   63 1  
    67   26   64 1  
    68   26   65 1  
    69   27   66 1  
    70   28   67 1  
    71   28   68 1  
    72   28   69 1  
    73   29   70 1  
    74   30   71 1  
    75   30   72 1  
    76   32   73 1  
    77   33   74 1  
    78   34   75 1  
    79   35   76 1  
    80   36   77 1  
@<TRIPOS>SUBSTRUCTURE
     1 OWY         1

