### 
### Created by X-TOOL on Mon Aug  2 16:16:11 2021
### 

@<TRIPOS>MOLECULE
6pu3_ligand
   49    48     1     0     0
SMALL
GAST_HUCK


@<TRIPOS>ATOM
      1 N          64.0270    3.6070   15.8860 N.4       1 SER         0.2396
      2 CA         64.3720    3.6260   14.4410 C.3       1 SER         0.0885
      3 C          63.5940    2.5100   13.7520 C.2       1 SER         0.2291
      4 O          63.2940    1.4640   14.3230 O.2       1 SER        -0.3906
      5 CB         65.8950    3.5100   14.2070 C.3       1 SER         0.1041
      6 OG         66.3610    2.3550   14.9110 O.3       1 SER        -0.3870
      7 N          63.2320    2.7660   12.4990 N.am      1 SER        -0.2585
      8 CA         62.5530    1.7950   11.6810 C.3       1 SER         0.1566
      9 C          63.4540    0.6010   11.3340 C.2       1 SER         0.2065
     10 O          64.6200    0.7890   10.9610 O.2       1 SER        -0.3943
     11 CB         62.1790    2.4530   10.3440 C.3       1 SER         0.0924
     12 OG1        61.5280    3.6980   10.6060 O.3       1 SER        -0.3874
     13 CG2        61.2420    1.6200    9.5790 C.3       1 SER        -0.0346
     14 N          62.8940   -0.5980   11.4760 N.am      1 SER        -0.2615
     15 CA         63.5910   -1.8730   11.2380 C.3       1 SER         0.1539
     16 C          62.7320   -2.7970   10.3770 C.2       1 SER         0.2056
     17 O          61.5040   -2.7210   10.4300 O.2       1 SER        -0.3943
     18 CB         63.7540   -2.7070   12.5220 C.3       1 SER         0.0843
     19 OG         64.4180   -1.9400   13.4870 O.3       1 SER        -0.3903
     20 N          63.4090   -3.6810    9.6480 N.am      1 SER        -0.2697
     21 CA         62.8220   -4.5600    8.6290 C.3       1 SER         0.0916
     22 C          62.7990   -5.9440    9.2430 C.2       1 SER         0.0598
     23 O          62.0840   -6.4120   10.1240 O.co2     1 SER        -0.5666
     24 CB         63.6950   -4.5830    7.3640 C.3       1 SER        -0.0300
     25 OXT        63.7270   -6.5880    8.7740 O.co2     1 SER        -0.5666
     26 H1         64.5316    4.3386   16.3615 H         1 SER         0.2016
     27 H2         64.2792    2.7141   16.2800 H         1 SER         0.2016
     28 H3         63.0362    3.7554   15.9969 H         1 SER         0.2016
     29 H4         64.0440    4.5874   14.0190 H         1 SER         0.1122
     30 H5         66.4013    4.4093   14.5877 H         1 SER         0.0640
     31 H6         66.1008    3.4007   13.1320 H         1 SER         0.0640
     32 H7         67.2976    2.2630   14.7814 H         1 SER         0.2099
     33 H8         63.4384    3.6642   12.1109 H         1 SER         0.1885
     34 H9         61.6515    1.4434   12.2041 H         1 SER         0.0826
     35 H10        63.0916    2.6201    9.7530 H         1 SER         0.0639
     36 H11        60.7432    3.5421   11.1181 H         1 SER         0.2101
     37 H12        60.9968    2.1204    8.6306 H         1 SER         0.0257
     38 H13        60.3221    1.4713   10.1636 H         1 SER         0.0257
     39 H14        61.7053    0.6445    9.3698 H         1 SER         0.0257
     40 H15        61.9369   -0.6354   11.7632 H         1 SER         0.1884
     41 H16        64.5659   -1.6741   10.7689 H         1 SER         0.0823
     42 H17        64.3415   -3.6105   12.3019 H         1 SER         0.0606
     43 H18        62.7629   -2.9972   12.9007 H         1 SER         0.0606
     44 H19        64.5204   -2.4515   14.2810 H         1 SER         0.2097
     45 H20        64.3938   -3.7520    9.8066 H         1 SER         0.1875
     46 H21        61.8046   -4.2286    8.3741 H         1 SER         0.0723
     47 H22        63.2378   -5.2463    6.6150 H         1 SER         0.0270
     48 H23        64.6989   -4.9539    7.6180 H         1 SER         0.0270
     49 H24        63.7729   -3.5654    6.9537 H         1 SER         0.0270
@<TRIPOS>BOND
     1    1    2 1  
     2    2    3 1  
     3    2    5 1  
     4    3    4 2  
     5    3    7 am 
     6    5    6 1  
     7    7    8 1  
     8    8    9 1  
     9    8   11 1  
    10    9   10 2  
    11    9   14 am 
    12   11   12 1  
    13   11   13 1  
    14   14   15 1  
    15   15   16 1  
    16   15   18 1  
    17   16   17 2  
    18   16   20 am 
    19   18   19 1  
    20   20   21 1  
    21   21   22 1  
    22   21   24 1  
    23   22   23 ar 
    24   22   25 ar 
    25    1   26 1  
    26    1   27 1  
    27    1   28 1  
    28    2   29 1  
    29    5   30 1  
    30    5   31 1  
    31    6   32 1  
    32    7   33 1  
    33    8   34 1  
    34   11   35 1  
    35   12   36 1  
    36   13   37 1  
    37   13   38 1  
    38   13   39 1  
    39   14   40 1  
    40   15   41 1  
    41   18   42 1  
    42   18   43 1  
    43   19   44 1  
    44   20   45 1  
    45   21   46 1  
    46   24   47 1  
    47   24   48 1  
    48   24   49 1  
@<TRIPOS>SUBSTRUCTURE
     1 SER         1

