### 
### Created by X-TOOL on Mon Aug  2 16:16:11 2021
### 

@<TRIPOS>MOLECULE
6pve_ligand
   71    74     1     0     0
SMALL
GAST_HUCK


@<TRIPOS>ATOM
      1 C1          3.0190    1.5510  -11.1900 C.ar      1 OZP         0.1045
      2 C2          2.3620    2.0730  -10.0740 C.ar      1 OZP         0.1613
      3 C4          4.3860    2.1080   -8.9450 C.ar      1 OZP         0.0533
      4 C6          4.4060    1.3180  -11.1240 C.ar      1 OZP         0.1298
      5 C8          0.9140    1.7690  -11.6580 C.2       1 OZP         0.1123
      6 C10        -0.0700    2.6750   -9.5830 C.3       1 OZP         0.2011
      7 C12        -1.0690    2.9950   -7.4210 C.3       1 OZP         0.1300
      8 C13        -1.3010    4.0640   -8.1470 C.3       1 OZP         0.1174
      9 C14        -0.4070    3.9490   -9.5470 C.3       1 OZP         0.1386
     10 C15        -2.3430    2.0850   -7.3750 C.3       1 OZP        -0.0023
     11 C18        -3.1880    2.3310   -5.0790 C.3       1 OZP        -0.0250
     12 C19        -2.9410    3.5820   -4.1860 C.3       1 OZP         0.0425
     13 C20        -2.8550    3.3080   -2.6560 C.3       1 OZP         0.0332
     14 N21        -1.7150    2.4470   -2.3350 N.4       1 OZP         0.2328
     15 C24        -4.7220    2.6720   -7.0110 C.3       1 OZP        -0.0300
     16 C25        -5.3280    1.3010   -6.7010 C.3       1 OZP        -0.0027
     17 C26        -6.7060    1.1540   -7.4420 C.3       1 OZP        -0.0134
     18 C27        -7.5430   -0.0620   -7.0110 C.ar      1 OZP        -0.0374
     19 C28        -7.3640   -1.2810   -7.6800 C.ar      1 OZP        -0.0406
     20 C29        -8.1200   -2.3850   -7.3210 C.ar      1 OZP         0.0429
     21 C30        -9.0500   -2.2910   -6.2890 C.ar      1 OZP        -0.0489
     22 C31        -9.2240   -1.0730   -5.6200 C.ar      1 OZP        -0.0629
     23 C32        -8.4680    0.0430   -5.9850 C.ar      1 OZP        -0.0560
     24 C33        -7.9200   -3.7130   -8.0680 C.2       1 OZP         0.2008
     25 C36        -4.1210    2.6710   -2.1780 C.2       1 OZP         0.0846
     26 N16        -3.3010    2.7800   -6.4940 N.4       1 OZP         0.2375
     27 N17         5.1540    0.7410  -12.3300 N.pl3     1 OZP        -0.3152
     28 N3          3.0780    2.3400   -8.9730 N.ar      1 OZP        -0.2714
     29 N34        -6.6000   -4.1300   -8.4470 N.am      1 OZP        -0.3001
     30 N5          5.0410    1.6060   -9.9990 N.ar      1 OZP        -0.2698
     31 N7          2.0910    1.3820  -12.1260 N.2       1 OZP        -0.2958
     32 N9          1.0690    2.2120  -10.4160 N.pl3     1 OZP        -0.1919
     33 O11         0.1370    2.2660   -8.0920 O.3       1 OZP        -0.3338
     34 O22        -0.8800    5.2130   -7.4060 O.3       1 OZP        -0.3863
     35 O23         0.6790    4.8680   -9.5000 O.3       1 OZP        -0.3836
     36 O35        -8.8510   -4.3720   -8.3370 O.2       1 OZP        -0.3849
     37 O37        -5.2120    3.0540   -2.6220 O.co2     1 OZP        -0.5643
     38 O38        -4.0800    1.7750   -1.3370 O.co2     1 OZP        -0.5643
     39 H1          4.9399    2.3322   -8.0406 H         1 OZP         0.0996
     40 H2         -0.0279    1.7302  -12.2033 H         1 OZP         0.1349
     41 H3         -0.9475    2.1363   -9.9700 H         1 OZP         0.0996
     42 H4         -0.8018    3.2872   -6.3948 H         1 OZP         0.0678
     43 H5         -2.3720    4.1393   -8.3863 H         1 OZP         0.0649
     44 H6         -1.0250    4.1906  -10.4243 H         1 OZP         0.0676
     45 H7         -2.0927    1.0958   -6.9641 H         1 OZP         0.0841
     46 H8         -2.7661    1.9668   -8.3835 H         1 OZP         0.0841
     47 H9         -4.1193    1.8329   -4.7716 H         1 OZP         0.0817
     48 H10        -2.3465    1.6299   -4.9776 H         1 OZP         0.0817
     49 H11        -3.7661    4.2889   -4.3576 H         1 OZP         0.0391
     50 H12        -1.9927    4.0416   -4.5016 H         1 OZP         0.0391
     51 H13        -2.7244    4.2688   -2.1366 H         1 OZP         0.1026
     52 H14        -1.6844    2.2870   -1.3402 H         1 OZP         0.2010
     53 H15        -0.8617    2.8955   -2.6295 H         1 OZP         0.2010
     54 H16        -1.8141    1.5657   -2.8141 H         1 OZP         0.2010
     55 H17        -5.3360    3.4504   -6.5345 H         1 OZP         0.0816
     56 H18        -4.7186    2.8234   -8.1005 H         1 OZP         0.0816
     57 H19        -5.4838    1.2064   -5.6162 H         1 OZP         0.0339
     58 H20        -4.6424    0.5118   -7.0432 H         1 OZP         0.0339
     59 H21        -6.5072    1.0678   -8.5204 H         1 OZP         0.0428
     60 H22        -7.2968    2.0617   -7.2494 H         1 OZP         0.0428
     61 H23        -6.6344   -1.3596   -8.4778 H         1 OZP         0.0607
     62 H24        -9.6369   -3.1569   -6.0046 H         1 OZP         0.0611
     63 H25        -9.9476   -0.9963   -4.8165 H         1 OZP         0.0611
     64 H26        -8.6042    0.9862   -5.4684 H         1 OZP         0.0592
     65 H27        -3.0570    3.7579   -6.5103 H         1 OZP         0.2034
     66 H28         6.1687    0.5732  -12.2745 H         1 OZP         0.1820
     67 H29         4.6422    0.5209  -13.1963 H         1 OZP         0.1820
     68 H30        -6.4689   -4.9940   -8.9331 H         1 OZP         0.1808
     69 H31        -5.8114   -3.5565   -8.2249 H         1 OZP         0.1808
     70 H32         0.0408    5.1282   -7.1885 H         1 OZP         0.2100
     71 H33         0.3411    5.7516   -9.4133 H         1 OZP         0.2101
@<TRIPOS>BOND
     1    2    1 ar 
     2    1    4 ar 
     3   31    1 1  
     4    2   28 ar 
     5   32    2 1  
     6   28    3 ar 
     7    3   30 ar 
     8    4   27 1  
     9    4   30 ar 
    10    5   31 2  
    11   32    5 1  
    12    6    9 1  
    13    6   32 1  
    14   33    6 1  
    15    7    8 1  
    16   10    7 1  
    17    7   33 1  
    18    8    9 1  
    19    8   34 1  
    20    9   35 1  
    21   26   10 1  
    22   11   12 1  
    23   26   11 1  
    24   12   13 1  
    25   13   14 1  
    26   13   25 1  
    27   15   16 1  
    28   15   26 1  
    29   16   17 1  
    30   17   18 1  
    31   18   19 ar 
    32   18   23 ar 
    33   19   20 ar 
    34   20   21 ar 
    35   20   24 1  
    36   21   22 ar 
    37   22   23 ar 
    38   24   29 am 
    39   24   36 2  
    40   25   37 ar 
    41   25   38 ar 
    42    3   39 1  
    43    5   40 1  
    44    6   41 1  
    45    7   42 1  
    46    8   43 1  
    47    9   44 1  
    48   10   45 1  
    49   10   46 1  
    50   11   47 1  
    51   11   48 1  
    52   12   49 1  
    53   12   50 1  
    54   13   51 1  
    55   14   52 1  
    56   14   53 1  
    57   14   54 1  
    58   15   55 1  
    59   15   56 1  
    60   16   57 1  
    61   16   58 1  
    62   17   59 1  
    63   17   60 1  
    64   19   61 1  
    65   21   62 1  
    66   22   63 1  
    67   23   64 1  
    68   26   65 1  
    69   27   66 1  
    70   27   67 1  
    71   29   68 1  
    72   29   69 1  
    73   34   70 1  
    74   35   71 1  
@<TRIPOS>SUBSTRUCTURE
     1 OZP         1

