### 
### Created by X-TOOL on Mon Aug  2 16:16:11 2021
### 

@<TRIPOS>MOLECULE
6pvs_ligand
   67    70     1     0     0
SMALL
GAST_HUCK


@<TRIPOS>ATOM
      1 C28         7.3800    1.5040   -8.0400 C.ar      1 P0V        -0.0264
      2 C29         8.2820    2.5800   -7.9110 C.ar      1 P0V         0.0509
      3 C30         9.2530    2.5580   -6.9260 C.ar      1 P0V        -0.0419
      4 C27         7.4570    0.4120   -7.1990 C.ar      1 P0V         0.0307
      5 C26         6.4380   -0.7260   -7.4030 C.1       1 P0V        -0.0600
      6 C19         3.7060   -2.6690   -4.9620 C.3       1 P0V         0.0425
      7 C14        -0.7270   -4.1560   -9.1250 C.3       1 P0V         0.1386
      8 C15         2.2390   -2.5360   -8.4580 C.3       1 P0V        -0.0014
      9 C13         0.2500   -4.0660   -8.0340 C.3       1 P0V         0.1174
     10 C12         0.8070   -2.6850   -8.0070 C.3       1 P0V         0.1301
     11 C6         -4.5670   -1.1260  -11.5550 C.ar      1 P0V         0.1298
     12 C4         -4.7370   -1.9070   -9.3540 C.ar      1 P0V         0.0533
     13 N3         -3.4750   -2.3330   -9.3430 N.ar      1 P0V        -0.2714
     14 C2         -2.7030   -2.1750  -10.4310 C.ar      1 P0V         0.1613
     15 C1         -3.2590   -1.5490  -11.5810 C.ar      1 P0V         0.1045
     16 N9         -1.5690   -2.4240  -10.8180 N.pl3     1 P0V        -0.1919
     17 C8         -1.1720   -2.1140  -11.9420 C.2       1 P0V         0.1123
     18 C10        -0.5610   -3.0190  -10.0190 C.3       1 P0V         0.2011
     19 C18         2.7850   -3.1610   -6.1020 C.3       1 P0V        -0.0240
     20 C20         3.0660   -2.5670   -3.5910 C.3       1 P0V         0.0332
     21 C24         4.6230   -2.7760   -7.7840 C.3       1 P0V         0.0314
     22 C25         5.6440   -1.6170   -7.5670 C.1       1 P0V        -0.0476
     23 C31         9.3350    1.4550   -6.0670 C.ar      1 P0V        -0.0551
     24 C32         8.4360    0.3800   -6.2030 C.ar      1 P0V        -0.0421
     25 C33         8.1070    3.7480   -8.8940 C.2       1 P0V         0.2026
     26 C36         4.3680   -2.4230   -2.6750 C.2       1 P0V         0.0846
     27 N16         3.2310   -2.4120   -7.3350 N.4       1 P0V         0.2462
     28 N17        -5.1070   -0.4740  -12.7330 N.pl3     1 P0V        -0.3152
     29 N21         2.0800   -3.3620   -2.9240 N.4       1 P0V         0.2328
     30 N34         6.8130    4.4360   -8.8530 N.am      1 P0V        -0.3000
     31 N5         -5.2750   -1.3130  -10.4360 N.ar      1 P0V        -0.2698
     32 N7         -2.1940   -1.5380  -12.5430 N.2       1 P0V        -0.2958
     33 O11        -0.0050   -1.9190   -9.0380 O.3       1 P0V        -0.3338
     34 O22         1.3400   -5.0190   -8.1130 O.3       1 P0V        -0.3863
     35 O23        -0.4360   -5.2860   -9.9760 O.3       1 P0V        -0.3836
     36 O35         8.9620    4.0700   -9.6610 O.2       1 P0V        -0.3848
     37 O37         4.5570   -1.4900   -1.8520 O.co2     1 P0V        -0.5643
     38 O38         5.3490   -3.2430   -2.6780 O.co2     1 P0V        -0.5643
     39 H1          6.6167    1.5346   -8.8090 H         1 P0V         0.0683
     40 H2          9.9438    3.3866   -6.8200 H         1 P0V         0.0669
     41 H3          4.0772   -1.6704   -5.2358 H         1 P0V         0.0391
     42 H4          4.5527   -3.3673   -4.8876 H         1 P0V         0.0391
     43 H5         -1.7478   -4.2095   -8.7186 H         1 P0V         0.0676
     44 H6          2.3114   -1.6337   -9.0829 H         1 P0V         0.0841
     45 H7          2.5053   -3.4193   -9.0571 H         1 P0V         0.0841
     46 H8         -0.2847   -4.2510   -7.0907 H         1 P0V         0.0649
     47 H9          0.6930   -2.2620   -6.9980 H         1 P0V         0.0678
     48 H10        -5.3472   -2.0421   -8.4683 H         1 P0V         0.0996
     49 H11        -0.1785   -2.2817  -12.3553 H         1 P0V         0.1349
     50 H12         0.2244   -3.3104  -10.7319 H         1 P0V         0.0996
     51 H13         1.7339   -2.9319   -5.8726 H         1 P0V         0.0818
     52 H14         2.9005   -4.2451   -6.2484 H         1 P0V         0.0818
     53 H15         2.5685   -1.5864   -3.6220 H         1 P0V         0.1026
     54 H16         4.9594   -3.6538   -7.2128 H         1 P0V         0.0959
     55 H17         4.5942   -3.0246   -8.8552 H         1 P0V         0.0959
     56 H18        10.0942    1.4288   -5.2937 H         1 P0V         0.0629
     57 H19         8.5034   -0.4715   -5.5356 H         1 P0V         0.0664
     58 H20         3.2595   -1.4372   -7.0800 H         1 P0V         0.2044
     59 H21        -6.0840   -0.1479  -12.7388 H         1 P0V         0.1820
     60 H22        -4.5134   -0.3372  -13.5636 H         1 P0V         0.1820
     61 H23         1.9035   -2.9796   -2.0082 H         1 P0V         0.2010
     62 H24         2.4159   -4.3081   -2.8340 H         1 P0V         0.2010
     63 H25         1.2263   -3.3580   -3.4600 H         1 P0V         0.2010
     64 H26         6.6357    5.2047   -9.4676 H         1 P0V         0.1808
     65 H27         6.1077    4.1366   -8.2104 H         1 P0V         0.1808
     66 H28         0.9874   -5.9010   -8.1304 H         1 P0V         0.2100
     67 H29        -0.5192   -6.0885   -9.4744 H         1 P0V         0.2101
@<TRIPOS>BOND
     1    1    2 ar 
     2    4    1 ar 
     3    2    3 ar 
     4    2   25 1  
     5    3   23 ar 
     6    5    4 1  
     7    4   24 ar 
     8   22    5 3  
     9   19    6 1  
    10    6   20 1  
    11    9    7 1  
    12   18    7 1  
    13    7   35 1  
    14    8   10 1  
    15   27    8 1  
    16   10    9 1  
    17    9   34 1  
    18   10   33 1  
    19   15   11 ar 
    20   11   28 1  
    21   11   31 ar 
    22   13   12 ar 
    23   12   31 ar 
    24   14   13 ar 
    25   14   15 ar 
    26   16   14 1  
    27   32   15 1  
    28   16   17 1  
    29   18   16 1  
    30   17   32 2  
    31   33   18 1  
    32   27   19 1  
    33   20   26 1  
    34   20   29 1  
    35   21   22 1  
    36   21   27 1  
    37   23   24 ar 
    38   25   30 am 
    39   25   36 2  
    40   26   37 ar 
    41   26   38 ar 
    42    1   39 1  
    43    3   40 1  
    44    6   41 1  
    45    6   42 1  
    46    7   43 1  
    47    8   44 1  
    48    8   45 1  
    49    9   46 1  
    50   10   47 1  
    51   12   48 1  
    52   17   49 1  
    53   18   50 1  
    54   19   51 1  
    55   19   52 1  
    56   20   53 1  
    57   21   54 1  
    58   21   55 1  
    59   23   56 1  
    60   24   57 1  
    61   27   58 1  
    62   28   59 1  
    63   28   60 1  
    64   29   61 1  
    65   29   62 1  
    66   29   63 1  
    67   30   64 1  
    68   30   65 1  
    69   34   66 1  
    70   35   67 1  
@<TRIPOS>SUBSTRUCTURE
     1 P0V         1

