### 
### Created by X-TOOL on Mon Aug  2 16:16:12 2021
### 

@<TRIPOS>MOLECULE
6pvy_ligand
   35    37     1     0     0
SMALL
GAST_HUCK


@<TRIPOS>ATOM
      1 C10        19.9970  -10.5680    2.6330 C.ar      1 OZG        -0.0403
      2 C13        20.3920   -7.2610    0.9250 C.2       1 OZG        -0.0232
      3 C15        21.3470   -5.0000    1.3760 C.2       1 OZG         0.0408
      4 C20        18.9260   -8.7060    0.8450 C.ar      1 OZG         0.1122
      5 C21        18.2430   -9.8510    1.0870 C.ar      1 OZG         0.0002
      6 C22        18.2340  -12.4250    4.5320 C.ar      1 OZG        -0.0011
      7 C01        17.8740  -13.8020    7.7730 C.3       1 OZG         0.0591
      8 C03        18.4540  -13.3550    5.5360 C.ar      1 OZG         0.0829
      9 C04        18.6130  -14.6970    5.2250 C.ar      1 OZG        -0.0437
     10 C05        18.5520  -15.1130    3.9110 C.ar      1 OZG        -0.0782
     11 C06        18.3340  -14.1860    2.9060 C.ar      1 OZG        -0.0398
     12 C07        18.1900  -12.8400    3.2050 C.ar      1 OZG         0.1061
     13 C09        18.7410  -10.8100    1.9820 C.ar      1 OZG         0.1053
     14 C11        20.6900   -9.3630    2.3620 C.ar      1 OZG        -0.0743
     15 C12        20.1840   -8.4380    1.4890 C.ar      1 OZG        -0.0115
     16 C14        21.6630   -6.4960    1.2910 C.3       1 OZG         0.0188
     17 C18        19.6280   -6.6950    0.1010 C.2       1 OZG         0.0742
     18 O02        18.5180  -12.9460    6.8700 O.3       1 OZG        -0.3239
     19 O08        17.9460  -11.9570    2.1430 O.3       1 OZG        -0.2660
     20 O16        21.1100   -4.3430    0.3260 O.co2     1 OZG        -0.5673
     21 O17        21.3190   -4.4190    2.4930 O.co2     1 OZG        -0.5673
     22 O19        18.5890   -7.5490   -0.0580 O.3       1 OZG        -0.2742
     23 H1         20.4090  -11.2966    3.3218 H         1 OZG         0.0485
     24 H2         17.2999  -10.0283    0.5828 H         1 OZG         0.0477
     25 H3         18.0968  -11.3787    4.7799 H         1 OZG         0.0471
     26 H4         17.9755  -13.4026    8.7929 H         1 OZG         0.0577
     27 H5         18.3330  -14.8004    7.7229 H         1 OZG         0.0577
     28 H6         16.8078  -13.8750    7.5123 H         1 OZG         0.0577
     29 H7         18.7853  -15.4194    6.0146 H         1 OZG         0.0456
     30 H8         18.6743  -16.1619    3.6663 H         1 OZG         0.0563
     31 H9         18.2753  -14.5160    1.8751 H         1 OZG         0.0460
     32 H10        21.6365   -9.1700    2.8539 H         1 OZG         0.0540
     33 H11        22.4292   -6.6664    0.5203 H         1 OZG         0.0521
     34 H12        22.0366   -6.8484    2.2637 H         1 OZG         0.0521
     35 H13        19.7711   -5.7284   -0.3799 H         1 OZG         0.0883
@<TRIPOS>BOND
     1   13    1 ar 
     2    1   14 ar 
     3   15    2 1  
     4    2   16 1  
     5    2   17 2  
     6   16    3 1  
     7    3   20 ar 
     8    3   21 ar 
     9    5    4 ar 
    10    4   15 ar 
    11    4   22 1  
    12   13    5 ar 
    13    6    8 ar 
    14   12    6 ar 
    15   18    7 1  
    16    8    9 ar 
    17    8   18 1  
    18   10    9 ar 
    19   11   10 ar 
    20   12   11 ar 
    21   19   12 1  
    22   13   19 1  
    23   14   15 ar 
    24   17   22 1  
    25    1   23 1  
    26    5   24 1  
    27    6   25 1  
    28    7   26 1  
    29    7   27 1  
    30    7   28 1  
    31    9   29 1  
    32   10   30 1  
    33   11   31 1  
    34   14   32 1  
    35   16   33 1  
    36   16   34 1  
    37   17   35 1  
@<TRIPOS>SUBSTRUCTURE
     1 OZG         1

