### 
### Created by X-TOOL on Mon Aug  2 16:16:12 2021
### 

@<TRIPOS>MOLECULE
6pvz_ligand
   33    35     1     0     0
SMALL
GAST_HUCK


@<TRIPOS>ATOM
      1 C10        19.0730  -12.9980    5.7510 C.3       1 OZM         0.0096
      2 C13        16.5850  -15.9470    5.3300 C.ar      1 OZM        -0.0682
      3 C15        18.5430  -16.3790    3.9340 C.ar      1 OZM        -0.0682
      4 C17        18.4810  -11.7150    3.5760 C.ar      1 OZM        -0.0712
      5 C02        19.1260   -7.6840    0.4900 C.2       1 OZM         0.0409
      6 C03        20.2930   -8.6930    0.2340 C.3       1 OZM         0.0193
      7 C04        20.7900   -9.3590    1.4210 C.2       1 OZM        -0.0209
      8 C05        22.1250   -9.2140    1.9760 C.2       1 OZM         0.0762
      9 C07        21.0800  -10.6130    3.4130 C.ar      1 OZM         0.1137
     10 C08        20.7390  -11.4860    4.4840 C.ar      1 OZM        -0.0291
     11 C09        19.4490  -12.0390    4.5860 C.ar      1 OZM        -0.0428
     12 C11        18.4390  -14.3240    5.2920 C.ar      1 OZM        -0.0328
     13 C12        17.1690  -14.7240    5.7610 C.ar      1 OZM        -0.0585
     14 C14        17.2730  -16.7760    4.4150 C.ar      1 OZM        -0.0685
     15 C16        19.1150  -15.1580    4.3710 C.ar      1 OZM        -0.0585
     16 C18        18.8200  -10.8370    2.4940 C.ar      1 OZM        -0.0743
     17 C19        20.1340  -10.2820    2.4160 C.ar      1 OZM        -0.0087
     18 O01        19.3810   -6.5010    0.9470 O.co2     1 OZM        -0.5673
     19 O06        22.2130   -9.9660    3.1040 O.3       1 OZM        -0.2720
     20 O20        17.9010   -8.0230    0.2870 O.co2     1 OZM        -0.5673
     21 H1         18.3569  -12.4812    6.4068 H         1 OZM         0.0573
     22 H2         19.9874  -13.2297    6.3169 H         1 OZM         0.0573
     23 H3         15.6116  -16.2436    5.7035 H         1 OZM         0.0600
     24 H4         19.0781  -17.0081    3.2319 H         1 OZM         0.0600
     25 H5         17.4846  -12.1381    3.6320 H         1 OZM         0.0484
     26 H6         21.1276   -8.1423   -0.2244 H         1 OZM         0.0521
     27 H7         19.9334   -9.4624   -0.4651 H         1 OZM         0.0521
     28 H8         22.9233   -8.6033    1.5569 H         1 OZM         0.0899
     29 H9         21.4844  -11.7287    5.2327 H         1 OZM         0.0492
     30 H10        16.6322  -14.0910    6.4584 H         1 OZM         0.0560
     31 H11        16.8310  -17.7089    4.0843 H         1 OZM         0.0560
     32 H12        20.0860  -14.8586    3.9934 H         1 OZM         0.0560
     33 H13        18.0817  -10.5953    1.7379 H         1 OZM         0.0544
@<TRIPOS>BOND
     1    1   11 1  
     2   12    1 1  
     3   13    2 ar 
     4    2   14 ar 
     5   14    3 ar 
     6    3   15 ar 
     7   11    4 ar 
     8    4   16 ar 
     9    6    5 1  
    10    5   18 ar 
    11    5   20 ar 
    12    7    6 1  
    13    8    7 2  
    14   17    7 1  
    15   19    8 1  
    16   10    9 ar 
    17    9   17 ar 
    18    9   19 1  
    19   11   10 ar 
    20   12   13 ar 
    21   12   15 ar 
    22   16   17 ar 
    23    1   21 1  
    24    1   22 1  
    25    2   23 1  
    26    3   24 1  
    27    4   25 1  
    28    6   26 1  
    29    6   27 1  
    30    8   28 1  
    31   10   29 1  
    32   13   30 1  
    33   14   31 1  
    34   15   32 1  
    35   16   33 1  
@<TRIPOS>SUBSTRUCTURE
     1 OZM         1

