### 
### Created by X-TOOL on Mon Aug  2 16:16:12 2021
### 

@<TRIPOS>MOLECULE
6py0_ligand
   53    53     1     0     0
SMALL
GAST_HUCK


@<TRIPOS>ATOM
      1 C1         -5.0810    1.3490  -11.8940 C.3       1 RTL        -0.0193
      2 C2         -3.8930    0.4540  -12.2450 C.3       1 RTL        -0.0451
      3 C3         -4.2060   -0.5510  -13.3680 C.3       1 RTL        -0.0519
      4 C4         -5.6000   -1.1470  -13.2400 C.3       1 RTL        -0.0477
      5 C5         -6.5220    0.0370  -13.2390 C.3       1 RTL        -0.0279
      6 C6         -6.4350    0.7140  -12.1270 C.3       1 RTL         0.0014
      7 C7         -7.5800    0.8070  -11.2060 C.2       1 RTL        -0.0647
      8 C8         -7.4450    0.4430   -9.9520 C.2       1 RTL        -0.0617
      9 C9         -8.4760    0.4990   -8.9110 C.2       1 RTL        -0.0602
     10 C10        -8.3260    1.4060   -7.9520 C.2       1 RTL        -0.0819
     11 C11        -9.2010    1.5390   -6.8130 C.2       1 RTL        -0.0924
     12 C12        -8.7260    0.9260   -5.7340 C.2       1 RTL        -0.0868
     13 C13        -9.3080    0.8380   -4.3940 C.2       1 RTL        -0.0709
     14 C14        -8.8530   -0.0870   -3.5460 C.2       1 RTL        -0.0646
     15 C15        -9.4170   -0.2040   -2.1530 C.3       1 RTL         0.0643
     16 O1         -8.6630   -1.1700   -1.4040 O.3       1 RTL        -0.3845
     17 C16        -4.9900    2.5740  -12.7720 C.3       1 RTL        -0.0570
     18 C17        -4.9470    1.7250  -10.4360 C.3       1 RTL        -0.0570
     19 C18        -7.3460    0.4930  -14.3980 C.3       1 RTL        -0.0596
     20 C19        -9.6140   -0.4630   -8.9180 C.3       1 RTL        -0.0330
     21 C20       -10.3700    1.7810   -3.9680 C.3       1 RTL        -0.0428
     22 H1         -3.5990   -0.1066  -11.3454 H         1 RTL         0.0273
     23 H2         -3.0575    1.0920  -12.5689 H         1 RTL         0.0273
     24 H3         -3.4683   -1.3660  -13.3287 H         1 RTL         0.0266
     25 H4         -4.1302   -0.0342  -14.3360 H         1 RTL         0.0266
     26 H5         -5.6951   -1.7134  -12.3018 H         1 RTL         0.0270
     27 H6         -5.8188   -1.8083  -14.0914 H         1 RTL         0.0270
     28 H7         -7.3663   -0.5646  -12.8715 H         1 RTL         0.0332
     29 H8         -6.7866    1.6282  -12.6277 H         1 RTL         0.0525
     30 H9         -8.5389    1.1778  -11.5651 H         1 RTL         0.0776
     31 H10        -6.4693    0.0611   -9.6551 H         1 RTL         0.0458
     32 H11        -7.4864    2.0951   -8.0311 H         1 RTL         0.0381
     33 H12       -10.1452    2.0811   -6.8349 H         1 RTL         0.0493
     34 H13        -7.7713    0.4188   -5.8649 H         1 RTL         0.0430
     35 H14        -8.0637   -0.7662   -3.8648 H         1 RTL         0.0500
     36 H15       -10.4676   -0.5248   -2.2098 H         1 RTL         0.0704
     37 H16        -9.3587    0.7734   -1.6518 H         1 RTL         0.0704
     38 H17        -9.0223   -1.2399   -0.5274 H         1 RTL         0.2128
     39 H18        -4.0138    3.0590  -12.6246 H         1 RTL         0.0237
     40 H19        -5.7927    3.2770  -12.5049 H         1 RTL         0.0237
     41 H20        -5.0971    2.2784  -13.8261 H         1 RTL         0.0237
     42 H21        -5.0161    0.8191   -9.8159 H         1 RTL         0.0237
     43 H22        -5.7540    2.4200  -10.1609 H         1 RTL         0.0237
     44 H23        -3.9734    2.2094  -10.2702 H         1 RTL         0.0237
     45 H24        -7.2635   -0.2373  -15.2164 H         1 RTL         0.0235
     46 H25        -6.9834    1.4726  -14.7429 H         1 RTL         0.0235
     47 H26        -8.3980    0.5796  -14.0885 H         1 RTL         0.0235
     48 H27        -9.5366   -1.1160   -9.7998 H         1 RTL         0.0405
     49 H28       -10.5630    0.0919   -8.9549 H         1 RTL         0.0405
     50 H29        -9.5824   -1.0751   -8.0046 H         1 RTL         0.0405
     51 H30       -10.6099    2.4622   -4.7977 H         1 RTL         0.0347
     52 H31       -10.0175    2.3646   -3.1048 H         1 RTL         0.0347
     53 H32       -11.2705    1.2159   -3.6855 H         1 RTL         0.0347
@<TRIPOS>BOND
     1    1    2 1  
     2    1    6 1  
     3    1   17 1  
     4    1   18 1  
     5    2    3 1  
     6    3    4 1  
     7    4    5 1  
     8    5    6 1  
     9    5   19 1  
    10    6    7 1  
    11    7    8 2  
    12    8    9 1  
    13    9   10 2  
    14    9   20 1  
    15   10   11 1  
    16   11   12 2  
    17   12   13 1  
    18   13   14 2  
    19   13   21 1  
    20   14   15 1  
    21   15   16 1  
    22    2   22 1  
    23    2   23 1  
    24    3   24 1  
    25    3   25 1  
    26    4   26 1  
    27    4   27 1  
    28    5   28 1  
    29    6   29 1  
    30    7   30 1  
    31    8   31 1  
    32   10   32 1  
    33   11   33 1  
    34   12   34 1  
    35   14   35 1  
    36   15   36 1  
    37   15   37 1  
    38   16   38 1  
    39   17   39 1  
    40   17   40 1  
    41   17   41 1  
    42   18   42 1  
    43   18   43 1  
    44   18   44 1  
    45   19   45 1  
    46   19   46 1  
    47   19   47 1  
    48   20   48 1  
    49   20   49 1  
    50   20   50 1  
    51   21   51 1  
    52   21   52 1  
    53   21   53 1  
@<TRIPOS>SUBSTRUCTURE
     1 RTL         1

