### 
### Created by X-TOOL on Mon Aug  2 16:16:12 2021
### 

@<TRIPOS>MOLECULE
6pya_ligand
   36    39     1     0     0
SMALL
GAST_HUCK


@<TRIPOS>ATOM
      1 CAA       -15.1100  -31.6000   -2.3200 C.ar      1 P57        -0.0721
      2 CAB       -14.4860  -32.5940   -1.5760 C.ar      1 P57        -0.0779
      3 CAC       -13.5780  -33.4410   -2.2120 C.ar      1 P57        -0.0756
      4 CAD       -13.2860  -33.3000   -3.5650 C.ar      1 P57        -0.0429
      5 CAE       -13.9180  -32.2800   -4.3190 C.ar      1 P57         0.0621
      6 CAF       -14.8220  -31.4600   -3.7030 C.ar      1 P57        -0.0117
      7 CAG       -15.2870  -30.5590   -4.7030 C.2       1 P57         0.0000
      8 CAI       -14.6350  -30.9190   -5.8810 C.2       1 P57         0.0652
      9 CAJ       -14.7520  -30.2520   -7.2300 C.ar      1 P57        -0.0046
     10 CAK       -14.4550  -30.9660   -8.3810 C.ar      1 P57        -0.0571
     11 CAL       -14.5450  -30.3100   -9.5890 C.ar      1 P57        -0.0651
     12 CAM       -14.8860  -28.9700   -9.6410 C.ar      1 P57        -0.0654
     13 CAN       -15.1500  -28.2540   -8.4930 C.ar      1 P57        -0.0651
     14 CAO       -15.0650  -28.9080   -7.2780 C.ar      1 P57        -0.0571
     15 CAP       -16.3250  -29.4510   -4.4790 C.3       1 P57         0.0805
     16 CAR       -16.4130  -27.2220   -3.4380 C.2       1 P57         0.0989
     17 CAT       -14.3280  -26.7230   -3.2550 C.2       1 P57        -0.0234
     18 CAU       -14.4360  -27.9750   -3.8310 C.2       1 P57         0.0378
     19 NAH       -13.8330  -31.9320   -5.6360 N.pl3     1 P57        -0.2820
     20 NAQ       -15.7320  -28.2370   -3.9370 N.pl3     1 P57        -0.2449
     21 NAS       -15.5650  -26.2930   -3.0460 N.2       1 P57        -0.3301
     22 H1        -15.8174  -30.9308   -1.8438 H         1 P57         0.0550
     23 H2        -14.7010  -32.7093   -0.5198 H         1 P57         0.0513
     24 H3        -13.0910  -34.2235   -1.6414 H         1 P57         0.0540
     25 H4        -12.5774  -33.9682   -4.0409 H         1 P57         0.0541
     26 H5        -14.1611  -32.0082   -8.3317 H         1 P57         0.0592
     27 H6        -14.3466  -30.8491  -10.5083 H         1 P57         0.0608
     28 H7        -14.9467  -28.4738  -10.6028 H         1 P57         0.0587
     29 H8        -15.4175  -27.2046   -8.5417 H         1 P57         0.0608
     30 H9        -15.2450  -28.3630   -6.3584 H         1 P57         0.0592
     31 H10       -17.0864  -29.8172   -3.7746 H         1 P57         0.0734
     32 H11       -16.8006  -29.2125   -5.4417 H         1 P57         0.0734
     33 H12       -17.4978  -27.1624   -3.3627 H         1 P57         0.1216
     34 H13       -13.4065  -26.1929   -3.0188 H         1 P57         0.0444
     35 H14       -13.6154  -28.6215   -4.1384 H         1 P57         0.0862
     36 H15       -13.2313  -32.3934   -6.3331 H         1 P57         0.2187
@<TRIPOS>BOND
     1    1    2 ar 
     2    6    1 ar 
     3    2    3 ar 
     4    4    3 ar 
     5    5    4 ar 
     6    6    5 ar 
     7   19    5 1  
     8    7    6 1  
     9    7    8 2  
    10   15    7 1  
    11    8    9 1  
    12    8   19 1  
    13    9   10 ar 
    14    9   14 ar 
    15   10   11 ar 
    16   11   12 ar 
    17   13   12 ar 
    18   14   13 ar 
    19   20   15 1  
    20   16   20 1  
    21   21   16 2  
    22   17   18 2  
    23   17   21 1  
    24   18   20 1  
    25    1   22 1  
    26    2   23 1  
    27    3   24 1  
    28    4   25 1  
    29   10   26 1  
    30   11   27 1  
    31   12   28 1  
    32   13   29 1  
    33   14   30 1  
    34   15   31 1  
    35   15   32 1  
    36   16   33 1  
    37   17   34 1  
    38   18   35 1  
    39   19   36 1  
@<TRIPOS>SUBSTRUCTURE
     1 P57         1

