### 
### Created by X-TOOL on Mon Aug  2 16:16:12 2021
### 

@<TRIPOS>MOLECULE
6pyb_ligand
   49    51     1     0     0
SMALL
GAST_HUCK


@<TRIPOS>ATOM
      1 C4         14.7480   31.5410   -2.2550 C.ar      1 P5G        -0.0623
      2 C5         15.2560   30.4320   -2.9520 C.3       1 P5G        -0.0213
      3 C6         14.6790   30.3210   -4.3800 C.3       1 P5G        -0.0030
      4 C7         15.3060   29.1140   -5.0900 C.3       1 P5G         0.0525
      5 C8         13.3470   28.4420   -3.9480 C.3       1 P5G         0.0525
      6 C10        12.5920   29.9330   -5.8430 C.3       1 P5G        -0.0213
      7 C13        10.3150   32.8380   -5.9160 C.ar      1 P5G        -0.0482
      8 C15        12.4140   33.4620   -6.9270 C.ar      1 P5G         0.1129
      9 C17        12.9150   32.1800   -6.7040 C.ar      1 P5G        -0.0398
     10 C20        13.7450   33.6910   -0.8010 C.ar      1 P5G         0.1091
     11 C1         13.4990   34.9810   -4.1420 C.3       1 P5G         0.0568
     12 C11        12.1080   31.2260   -6.0830 C.ar      1 P5G        -0.0623
     13 C12        10.8130   31.5600   -5.6950 C.ar      1 P5G        -0.0801
     14 C14        11.1250   33.7830   -6.5280 C.ar      1 P5G         0.1091
     15 C16        14.4850   34.1700   -7.7700 C.3       1 P5G         0.0568
     16 C18        14.5910   31.4460   -0.8760 C.ar      1 P5G        -0.0801
     17 C19        14.0880   32.5170   -0.1460 C.ar      1 P5G        -0.0482
     18 C2         13.8990   33.8000   -2.1710 C.ar      1 P5G         0.1129
     19 C3         14.4020   32.7290   -2.9000 C.ar      1 P5G        -0.0398
     20 C9         13.2120   29.8950   -4.4280 C.3       1 P5G        -0.0030
     21 O1         13.5320   34.9960   -2.7150 O.3       1 P5G        -0.3266
     22 O2         14.6330   27.9640   -4.4830 O.3       1 P5G        -0.3789
     23 O3         10.7070   35.0550   -6.7770 O.3       1 P5G        -0.3414
     24 O4         13.1120   34.4780   -7.5150 O.3       1 P5G        -0.3266
     25 O5         13.2490   34.7790   -0.1540 O.3       1 P5G        -0.3414
     26 H1         15.0011   29.5179   -2.3958 H         1 P5G         0.0407
     27 H2         16.3498   30.5274   -3.0192 H         1 P5G         0.0407
     28 H3         14.8454   31.2643   -4.9209 H         1 P5G         0.0348
     29 H4         16.3904   29.0733   -4.9102 H         1 P5G         0.0564
     30 H5         15.1150   29.1533   -6.1726 H         1 P5G         0.0564
     31 H6         12.5190   27.8311   -4.3367 H         1 P5G         0.0564
     32 H7         13.3493   28.3997   -2.8488 H         1 P5G         0.0564
     33 H8         13.3581   29.6791   -6.5904 H         1 P5G         0.0407
     34 H9         11.7653   29.2101   -5.9051 H         1 P5G         0.0407
     35 H10         9.3058   33.0934   -5.6138 H         1 P5G         0.0492
     36 H11        13.9234   31.9265   -7.0106 H         1 P5G         0.0450
     37 H12        13.1971   35.9719   -4.5122 H         1 P5G         0.0573
     38 H13        12.7760   34.2259   -4.4842 H         1 P5G         0.0573
     39 H14        14.4984   34.7338   -4.5293 H         1 P5G         0.0573
     40 H15        10.1874   30.8156   -5.2159 H         1 P5G         0.0436
     41 H16        14.9734   35.0354   -8.2418 H         1 P5G         0.0573
     42 H17        14.5473   33.3020   -8.4428 H         1 P5G         0.0573
     43 H18        14.9905   33.9358   -6.8216 H         1 P5G         0.0573
     44 H19        14.8632   30.5289   -0.3662 H         1 P5G         0.0436
     45 H20        13.9646   32.4353    0.9279 H         1 P5G         0.0492
     46 H21        14.5260   32.8168   -3.9733 H         1 P5G         0.0450
     47 H22        12.5976   30.5011   -3.7460 H         1 P5G         0.0348
     48 H23         9.8164   35.1615   -6.4640 H         1 P5G         0.2420
     49 H24        13.8286   35.5191   -0.2910 H         1 P5G         0.2420
@<TRIPOS>BOND
     1    1    2 1  
     2    1   16 ar 
     3   19    1 ar 
     4    2    3 1  
     5    3    4 1  
     6    3   20 1  
     7    4   22 1  
     8   20    5 1  
     9    5   22 1  
    10    6   12 1  
    11   20    6 1  
    12   13    7 ar 
    13    7   14 ar 
    14    9    8 ar 
    15    8   14 ar 
    16    8   24 1  
    17   12    9 ar 
    18   10   17 ar 
    19   18   10 ar 
    20   10   25 1  
    21   21   11 1  
    22   12   13 ar 
    23   14   23 1  
    24   24   15 1  
    25   17   16 ar 
    26   18   19 ar 
    27   18   21 1  
    28    2   26 1  
    29    2   27 1  
    30    3   28 1  
    31    4   29 1  
    32    4   30 1  
    33    5   31 1  
    34    5   32 1  
    35    6   33 1  
    36    6   34 1  
    37    7   35 1  
    38    9   36 1  
    39   11   37 1  
    40   11   38 1  
    41   11   39 1  
    42   13   40 1  
    43   15   41 1  
    44   15   42 1  
    45   15   43 1  
    46   16   44 1  
    47   17   45 1  
    48   19   46 1  
    49   20   47 1  
    50   23   48 1  
    51   25   49 1  
@<TRIPOS>SUBSTRUCTURE
     1 P5G         1

