### 
### Created by X-TOOL on Mon Aug  2 16:17:12 2021
### 

@<TRIPOS>MOLECULE
6pyc_ligand
   61    66     1     0     0
SMALL
GAST_HUCK


@<TRIPOS>ATOM
      1 C1         13.5230  107.5620   60.6650 C.3       1 P4S         0.0001
      2 C2         12.7430  107.6580   61.9840 C.3       1 P4S        -0.0424
      3 C3         13.6090  107.4520   63.2260 C.3       1 P4S        -0.0262
      4 C4         14.7180  108.4910   63.3130 C.3       1 P4S         0.0579
      5 C5         14.9070  109.2500   62.0040 C.3       1 P4S         0.0026
      6 C6         14.8370  108.3750   60.7580 C.3       1 P4S         0.0741
      7 C7         16.1290  107.5680   60.7540 C.3       1 P4S        -0.0230
      8 O1         14.2700  100.0040   55.8280 O.3       1 P4S        -0.2122
      9 O2         12.8260   98.5660   54.8580 O.2       1 P4S        -0.3937
     10 O3         14.9310  109.2820   59.6520 O.3       1 P4S        -0.3879
     11 O4         14.3770  109.4490   64.3160 O.3       1 P4S        -0.3917
     12 C20        13.0820   99.3280   55.8140 C.2       1 P4S         0.2507
     13 C19        14.5850  100.8270   56.8290 C.2       1 P4S         0.1121
     14 C21        12.1810   99.4980   56.8620 C.2       1 P4S         0.0060
     15 C22        12.5010  100.3550   57.9140 C.2       1 P4S        -0.0557
     16 C18        13.7170  101.0380   57.9110 C.2       1 P4S        -0.0028
     17 C17        14.0240  101.9670   59.0550 C.3       1 P4S        -0.0024
     18 C13        13.7410  103.4540   58.7650 C.3       1 P4S         0.0086
     19 C23        13.4710  103.7830   57.2960 C.3       1 P4S        -0.0553
     20 C12        12.5700  103.8930   59.6360 C.3       1 P4S        -0.0431
     21 C11        12.4570  105.4080   59.7740 C.3       1 P4S        -0.0486
     22 C10        13.7210  106.0670   60.3450 C.3       1 P4S        -0.0274
     23 C          12.6370  108.2140   59.6020 C.3       1 P4S        -0.0567
     24 C16        15.4560  101.8810   59.6030 C.3       1 P4S        -0.0143
     25 C15        16.0530  103.2890   59.6510 C.3       1 P4S         0.0908
     26 O          16.1600  103.9900   58.4110 O.3       1 P4S        -0.3636
     27 C14        14.9710  104.2450   59.1780 C.3       1 P4S         0.1059
     28 C9         14.8630  105.7760   59.3760 C.3       1 P4S        -0.0053
     29 C8         16.1960  106.3930   59.7990 C.3       1 P4S        -0.0446
     30 H1         11.9555  106.8900   61.9785 H         1 P4S         0.0272
     31 H2         12.2824  108.6551   62.0433 H         1 P4S         0.0272
     32 H3         14.0609  106.4500   63.1842 H         1 P4S         0.0290
     33 H4         12.9745  107.5311   64.1210 H         1 P4S         0.0290
     34 H5         15.6590  107.9875   63.5793 H         1 P4S         0.0594
     35 H6         15.8925  109.7382   62.0276 H         1 P4S         0.0318
     36 H7         14.1202  110.0154   61.9325 H         1 P4S         0.0318
     37 H8         16.2821  107.1793   61.7716 H         1 P4S         0.0293
     38 H9         16.9494  108.2539   60.4962 H         1 P4S         0.0293
     39 H10        14.8929  108.7928   58.8386 H         1 P4S         0.2102
     40 H11        14.2522  109.0053   65.1467 H         1 P4S         0.2098
     41 H12        15.5406  101.3488   56.8060 H         1 P4S         0.1201
     42 H13        11.2317   98.9645   56.8598 H         1 P4S         0.0505
     43 H14        11.8018  100.4911   58.7377 H         1 P4S         0.0692
     44 H15        13.3504  101.6626   59.8696 H         1 P4S         0.0413
     45 H16        12.5845  103.2293   56.9532 H         1 P4S         0.0237
     46 H17        14.3415  103.4931   56.6893 H         1 P4S         0.0237
     47 H18        13.2927  104.8631   57.1889 H         1 P4S         0.0237
     48 H19        12.6986  103.4595   60.6388 H         1 P4S         0.0273
     49 H20        11.6399  103.5126   59.1886 H         1 P4S         0.0273
     50 H21        11.6137  105.6348   60.4429 H         1 P4S         0.0268
     51 H22        12.2610  105.8346   58.7792 H         1 P4S         0.0268
     52 H23        13.9595  105.5719   61.2979 H         1 P4S         0.0311
     53 H24        12.5025  109.2795   59.8400 H         1 P4S         0.0236
     54 H25        11.6566  107.7154   59.5856 H         1 P4S         0.0236
     55 H26        13.1147  108.1161   58.6160 H         1 P4S         0.0236
     56 H27        16.0655  101.2437   58.9455 H         1 P4S         0.0309
     57 H28        15.4388  101.4524   60.6159 H         1 P4S         0.0309
     58 H29        16.7445  103.4595   60.4893 H         1 P4S         0.0627
     59 H30        14.5969  106.2232   58.4069 H         1 P4S         0.0332
     60 H31        16.7902  105.6037   60.2827 H         1 P4S         0.0270
     61 H32        16.7102  106.7328   58.8879 H         1 P4S         0.0270
@<TRIPOS>BOND
     1    1    2 1  
     2    1    6 1  
     3   22    1 1  
     4    1   23 1  
     5    2    3 1  
     6    3    4 1  
     7    5    4 1  
     8    4   11 1  
     9    6    5 1  
    10    6    7 1  
    11    6   10 1  
    12    7   29 1  
    13    8   12 1  
    14   13    8 1  
    15   12    9 2  
    16   14   12 1  
    17   16   13 2  
    18   15   14 2  
    19   16   15 1  
    20   17   16 1  
    21   18   17 1  
    22   17   24 1  
    23   18   19 1  
    24   20   18 1  
    25   18   27 1  
    26   21   20 1  
    27   21   22 1  
    28   22   28 1  
    29   24   25 1  
    30   25   26 1  
    31   25   27 1  
    32   26   27 1  
    33   27   28 1  
    34   28   29 1  
    35    2   30 1  
    36    2   31 1  
    37    3   32 1  
    38    3   33 1  
    39    4   34 1  
    40    5   35 1  
    41    5   36 1  
    42    7   37 1  
    43    7   38 1  
    44   10   39 1  
    45   11   40 1  
    46   13   41 1  
    47   14   42 1  
    48   15   43 1  
    49   17   44 1  
    50   19   45 1  
    51   19   46 1  
    52   19   47 1  
    53   20   48 1  
    54   20   49 1  
    55   21   50 1  
    56   21   51 1  
    57   22   52 1  
    58   23   53 1  
    59   23   54 1  
    60   23   55 1  
    61   24   56 1  
    62   24   57 1  
    63   25   58 1  
    64   28   59 1  
    65   29   60 1  
    66   29   61 1  
@<TRIPOS>SUBSTRUCTURE
     1 P4S         1

