### 
### Created by X-TOOL on Mon Aug  2 16:16:12 2021
### 

@<TRIPOS>MOLECULE
6pyd_ligand
   61    66     1     0     0
SMALL
GAST_HUCK


@<TRIPOS>ATOM
      1 C1         52.1020  -28.5370    3.2610 C.3       1 P4S         0.0001
      2 C2         51.3950  -29.8610    2.9100 C.3       1 P4S        -0.0424
      3 C3         50.6500  -30.5270    4.0650 C.3       1 P4S        -0.0262
      4 C4         49.6160  -29.5840    4.6760 C.3       1 P4S         0.0579
      5 C5         50.2590  -28.2630    5.0690 C.3       1 P4S         0.0026
      6 C6         51.0360  -27.6110    3.9120 C.3       1 P4S         0.0741
      7 C7         51.6240  -26.2950    4.4100 C.3       1 P4S        -0.0230
      8 O1         59.9770  -26.4030    6.4890 O.3       1 P4S        -0.2122
      9 O2         62.1750  -26.7810    6.0020 O.2       1 P4S        -0.3937
     10 O3         50.0490  -27.2430    2.9380 O.3       1 P4S        -0.3879
     11 O4         48.5790  -29.3070    3.7350 O.3       1 P4S        -0.3917
     12 C20        61.0120  -27.2310    6.1090 C.2       1 P4S         0.2507
     13 C19        58.7220  -26.8610    6.6180 C.2       1 P4S         0.1121
     14 C21        60.7610  -28.5770    5.8440 C.2       1 P4S         0.0060
     15 C22        59.4610  -29.0670    5.9690 C.2       1 P4S        -0.0557
     16 C18        58.4220  -28.2170    6.3680 C.2       1 P4S        -0.0028
     17 C17        57.0410  -28.7870    6.4690 C.3       1 P4S        -0.0024
     18 C13        56.1740  -28.5530    5.2130 C.3       1 P4S         0.0086
     19 C23        56.9140  -28.0030    3.9660 C.3       1 P4S        -0.0553
     20 C12        55.4850  -29.8650    4.8240 C.3       1 P4S        -0.0431
     21 C11        54.4020  -29.6790    3.7560 C.3       1 P4S        -0.0486
     22 C10        53.2800  -28.7370    4.2560 C.3       1 P4S        -0.0274
     23 C          52.6130  -27.9820    1.9130 C.3       1 P4S        -0.0567
     24 C16        56.2490  -28.2530    7.6790 C.3       1 P4S        -0.0143
     25 C15        55.1740  -27.3050    7.1530 C.3       1 P4S         0.0908
     26 O          55.5560  -26.3570    6.1500 O.3       1 P4S        -0.3636
     27 C14        55.0630  -27.6140    5.6720 C.3       1 P4S         0.1059
     28 C9         53.8570  -27.3860    4.7460 C.3       1 P4S        -0.0053
     29 C8         52.7970  -26.4750    5.3640 C.3       1 P4S        -0.0446
     30 H1         52.1557  -30.5663    2.5442 H         1 P4S         0.0272
     31 H2         50.6688  -29.6571    2.1094 H         1 P4S         0.0272
     32 H3         51.3751  -30.8145    4.8406 H         1 P4S         0.0290
     33 H4         50.1381  -31.4256    3.6904 H         1 P4S         0.0290
     34 H5         49.1833  -30.0593    5.5686 H         1 P4S         0.0594
     35 H6         50.9548  -28.4446    5.9014 H         1 P4S         0.0318
     36 H7         49.4689  -27.5709    5.3958 H         1 P4S         0.0318
     37 H8         50.8335  -25.7361    4.9322 H         1 P4S         0.0293
     38 H9         51.9686  -25.7166    3.5402 H         1 P4S         0.0293
     39 H10        49.5862  -28.0205    2.6484 H         1 P4S         0.2102
     40 H11        47.9351  -28.7341    4.1346 H         1 P4S         0.2098
     41 H12        57.9275  -26.1795    6.9185 H         1 P4S         0.1201
     42 H13        61.5717  -29.2387    5.5426 H         1 P4S         0.0505
     43 H14        59.2532  -30.1145    5.7555 H         1 P4S         0.0692
     44 H15        57.1589  -29.8732    6.5964 H         1 P4S         0.0413
     45 H16        57.7046  -28.7076    3.6685 H         1 P4S         0.0237
     46 H17        57.3632  -27.0281    4.2065 H         1 P4S         0.0237
     47 H18        56.1992  -27.8833    3.1386 H         1 P4S         0.0237
     48 H19        55.0204  -30.2968    5.7227 H         1 P4S         0.0273
     49 H20        56.2453  -30.5583    4.4351 H         1 P4S         0.0273
     50 H21        53.9659  -30.6590    3.5125 H         1 P4S         0.0268
     51 H22        54.8583  -29.2463    2.8535 H         1 P4S         0.0268
     52 H23        52.8453  -29.2288    5.1387 H         1 P4S         0.0311
     53 H24        51.7643  -27.8487    1.2260 H         1 P4S         0.0236
     54 H25        53.3322  -28.6892    1.4742 H         1 P4S         0.0236
     55 H26        53.1062  -27.0129    2.0788 H         1 P4S         0.0236
     56 H27        56.9240  -27.7125    8.3589 H         1 P4S         0.0309
     57 H28        55.7792  -29.0894    8.2171 H         1 P4S         0.0309
     58 H29        54.3433  -27.1230    7.8507 H         1 P4S         0.0627
     59 H30        54.2350  -26.8612    3.8562 H         1 P4S         0.0332
     60 H31        52.4357  -26.9243    6.3008 H         1 P4S         0.0270
     61 H32        53.2440  -25.4928    5.5770 H         1 P4S         0.0270
@<TRIPOS>BOND
     1    1    2 1  
     2    1    6 1  
     3   22    1 1  
     4    1   23 1  
     5    2    3 1  
     6    3    4 1  
     7    5    4 1  
     8    4   11 1  
     9    6    5 1  
    10    6    7 1  
    11    6   10 1  
    12    7   29 1  
    13    8   12 1  
    14   13    8 1  
    15   12    9 2  
    16   14   12 1  
    17   16   13 2  
    18   15   14 2  
    19   16   15 1  
    20   17   16 1  
    21   18   17 1  
    22   17   24 1  
    23   18   19 1  
    24   20   18 1  
    25   18   27 1  
    26   21   20 1  
    27   21   22 1  
    28   22   28 1  
    29   24   25 1  
    30   25   26 1  
    31   25   27 1  
    32   26   27 1  
    33   27   28 1  
    34   28   29 1  
    35    2   30 1  
    36    2   31 1  
    37    3   32 1  
    38    3   33 1  
    39    4   34 1  
    40    5   35 1  
    41    5   36 1  
    42    7   37 1  
    43    7   38 1  
    44   10   39 1  
    45   11   40 1  
    46   13   41 1  
    47   14   42 1  
    48   15   43 1  
    49   17   44 1  
    50   19   45 1  
    51   19   46 1  
    52   19   47 1  
    53   20   48 1  
    54   20   49 1  
    55   21   50 1  
    56   21   51 1  
    57   22   52 1  
    58   23   53 1  
    59   23   54 1  
    60   23   55 1  
    61   24   56 1  
    62   24   57 1  
    63   25   58 1  
    64   28   59 1  
    65   29   60 1  
    66   29   61 1  
@<TRIPOS>SUBSTRUCTURE
     1 P4S         1

