### 
### Created by X-TOOL on Mon Aug  2 16:16:13 2021
### 

@<TRIPOS>MOLECULE
6pyr_ligand
   56    61     1     0     0
SMALL
GAST_HUCK


@<TRIPOS>ATOM
      1 C1         34.2210   13.2690   32.1260 C.2       1 P5J         0.0618
      2 C2         33.4390   14.4250   31.8470 C.2       1 P5J         0.0129
      3 C3         33.8990   15.6400   32.2110 C.2       1 P5J         0.1128
      4 C5         35.8390   14.6040   33.1300 C.2       1 P5J         0.1754
      5 C7         37.0140   15.0260   33.7900 C.2       1 P5J         0.0156
      6 C8         36.9110   16.4240   33.9000 C.2       1 P5J        -0.0019
      7 C11        37.9380   12.7960   34.5680 C.ar      1 P5J        -0.0446
      8 C12        38.9370   12.0240   35.1340 C.ar      1 P5J        -0.0083
      9 C15        39.3130   14.7680   34.8250 C.ar      1 P5J        -0.0639
     10 C16        41.6820   14.3100   35.9450 C.3       1 P5J         0.0330
     11 C17        42.2020   12.9670   36.4260 C.2       1 P5J         0.2070
     12 C21        43.1240   14.0730   33.8030 C.ar      1 P5J        -0.0555
     13 C23        44.7550   12.4920   32.9600 C.ar      1 P5J        -0.0686
     14 C24        44.0920   12.4430   31.7390 C.ar      1 P5J        -0.0687
     15 C27        41.5220   15.2660   37.1340 C.3       1 P5J        -0.0897
     16 C31        32.9840    9.4410   30.8720 C.ar      1 P5J         0.1055
     17 C33        34.7150   10.8910   31.3980 C.ar      1 P5J         0.0362
     18 C34        32.4990    8.0850   30.4170 C.3       1 P5J         0.0063
     19 N4         35.1000   15.7240   32.8610 N.pl3     1 P5J        -0.1313
     20 N6         35.3820   13.4030   32.7490 N.2       1 P5J        -0.2614
     21 N9         35.7890   16.8350   33.3590 N.2       1 P5J        -0.2036
     22 C10        38.1120   14.1830   34.3640 C.ar      1 P5J        -0.0280
     23 C13        40.1340   12.6110   35.5540 C.ar      1 P5J         0.0932
     24 C14        40.3090   13.9830   35.3840 C.ar      1 P5J        -0.0377
     25 O18        43.2780   12.7540   36.9420 O.2       1 P5J        -0.3201
     26 N19        41.2620   12.0480   36.1540 N.am      1 P5J        -0.2197
     27 C20        42.6000   14.9790   34.8990 C.3       1 P5J        -0.0454
     28 C22        44.2760   13.3120   33.9810 C.ar      1 P5J        -0.0616
     29 C25        42.9470   13.2110   31.5540 C.ar      1 P5J        -0.0686
     30 C26        42.4720   14.0250   32.5790 C.ar      1 P5J        -0.0616
     31 C28        33.7760   11.9040   31.6990 C.ar      1 P5J         0.0525
     32 C29        32.4190   11.5780   31.5400 C.ar      1 P5J         0.0362
     33 N30        32.0740   10.3550   31.1430 N.ar      1 P5J        -0.2589
     34 N32        34.2830    9.6960   30.9940 N.ar      1 P5J        -0.2589
     35 H1         32.4778   14.3296   31.3441 H         1 P5J         0.0612
     36 H2         33.3242   16.5385   31.9912 H         1 P5J         0.1349
     37 H3         37.6534   17.0703   34.3658 H         1 P5J         0.0671
     38 H4         37.0049   12.3281   34.2758 H         1 P5J         0.0794
     39 H5         38.7904   10.9565   35.2525 H         1 P5J         0.0603
     40 H6         39.4563   15.8392   34.7407 H         1 P5J         0.0634
     41 H7         45.6443   11.8927   33.1183 H         1 P5J         0.0599
     42 H8         44.4636   11.8127   30.9392 H         1 P5J         0.0559
     43 H9         42.5129   15.5077   37.5460 H         1 P5J         0.0081
     44 H10        40.9091   14.7856   37.9109 H         1 P5J         0.0081
     45 H11        41.0294   16.1902   36.7977 H         1 P5J         0.0081
     46 H12        35.7773   11.0841   31.4948 H         1 P5J         0.0964
     47 H13        31.3995    8.0814   30.3827 H         1 P5J         0.0474
     48 H14        32.8463    7.3157   31.1224 H         1 P5J         0.0474
     49 H15        32.8978    7.8703   29.4146 H         1 P5J         0.0474
     50 H16        41.3585   11.0737   36.3574 H         1 P5J         0.2422
     51 H17        43.4659   15.4004   35.4307 H         1 P5J         0.0276
     52 H18        42.0318   15.7912   34.4220 H         1 P5J         0.0276
     53 H19        44.8072   13.3574   34.9249 H         1 P5J         0.0556
     54 H20        42.4216   13.1756   30.6065 H         1 P5J         0.0599
     55 H21        41.5846   14.6268   32.4193 H         1 P5J         0.0556
     56 H22        31.6547   12.3202   31.7400 H         1 P5J         0.0964
@<TRIPOS>BOND
     1    1    2 1  
     2    1   20 2  
     3   31    1 1  
     4    2    3 2  
     5    3   19 1  
     6    4    5 2  
     7    4   19 1  
     8   20    4 1  
     9    5    6 1  
    10    5   22 1  
    11    6   21 2  
    12    7    8 ar 
    13   22    7 ar 
    14    8   23 ar 
    15   22    9 ar 
    16    9   24 ar 
    17   10   11 1  
    18   10   15 1  
    19   24   10 1  
    20   10   27 1  
    21   11   25 2  
    22   11   26 am 
    23   27   12 1  
    24   12   28 ar 
    25   12   30 ar 
    26   13   14 ar 
    27   28   13 ar 
    28   14   29 ar 
    29   16   18 1  
    30   16   33 ar 
    31   34   16 ar 
    32   17   31 ar 
    33   17   34 ar 
    34   19   21 1  
    35   23   24 ar 
    36   23   26 1  
    37   29   30 ar 
    38   31   32 ar 
    39   32   33 ar 
    40    2   35 1  
    41    3   36 1  
    42    6   37 1  
    43    7   38 1  
    44    8   39 1  
    45    9   40 1  
    46   13   41 1  
    47   14   42 1  
    48   15   43 1  
    49   15   44 1  
    50   15   45 1  
    51   17   46 1  
    52   18   47 1  
    53   18   48 1  
    54   18   49 1  
    55   26   50 1  
    56   27   51 1  
    57   27   52 1  
    58   28   53 1  
    59   29   54 1  
    60   30   55 1  
    61   32   56 1  
@<TRIPOS>SUBSTRUCTURE
     1 P5J         1

