### 
### Created by X-TOOL on Mon Aug  2 16:16:14 2021
### 

@<TRIPOS>MOLECULE
6pys_ligand
   56    61     1     0     0
SMALL
GAST_HUCK


@<TRIPOS>ATOM
      1 C1        -18.6190   14.4130   29.8660 C.2       1 P5J         0.0618
      2 C2        -18.1490   15.5150   30.6250 C.2       1 P5J         0.0129
      3 C3        -16.8320   15.8220   30.5790 C.2       1 P5J         0.1128
      4 C5        -16.4640   13.9790   29.0940 C.2       1 P5J         0.1754
      5 C7        -15.3650   13.4030   28.4260 C.2       1 P5J         0.0156
      6 C8        -14.2480   14.1660   28.7990 C.2       1 P5J        -0.0019
      7 C11       -14.2250   11.9360   26.7200 C.ar      1 P5J        -0.0446
      8 C12       -14.1940   10.8120   25.9150 C.ar      1 P5J        -0.0083
      9 C15       -16.4100   11.2790   27.5150 C.ar      1 P5J        -0.0639
     10 C16       -17.3410    9.0180   26.4500 C.3       1 P5J         0.0330
     11 C17       -16.5910    8.1360   25.4710 C.2       1 P5J         0.2070
     12 C21       -18.7080    8.8770   28.6200 C.ar      1 P5J        -0.0555
     13 C23       -20.9590    9.5150   29.2150 C.ar      1 P5J        -0.0686
     14 C24       -20.4810   10.1520   30.3510 C.ar      1 P5J        -0.0687
     15 C27       -18.5340    9.6150   25.6890 C.3       1 P5J        -0.0897
     16 C31       -22.6940   13.4250   29.8460 C.ar      1 P5J         0.1055
     17 C33       -20.8310   14.0870   31.0550 C.ar      1 P5J         0.0362
     18 C34       -24.1590   13.0680   29.8290 C.3       1 P5J         0.0063
     19 N4        -15.9880   15.0490   29.8190 N.pl3     1 P5J        -0.1313
     20 N6        -17.7710   13.6940   29.1380 N.2       1 P5J        -0.2614
     21 N9        -14.6160   15.1300   29.6040 N.2       1 P5J        -0.2036
     22 C10       -15.3420   12.2020   27.5360 C.ar      1 P5J        -0.0280
     23 C13       -15.2650    9.9190   25.8920 C.ar      1 P5J         0.0932
     24 C14       -16.3660   10.1520   26.7140 C.ar      1 P5J        -0.0377
     25 O18       -16.9800    7.0910   24.9950 O.2       1 P5J        -0.3201
     26 N19       -15.4280    8.7350   25.1830 N.am      1 P5J        -0.2197
     27 C20       -17.7350    8.1840   27.6890 C.3       1 P5J        -0.0454
     28 C22       -20.0750    8.8730   28.3570 C.ar      1 P5J        -0.0616
     29 C25       -19.1210   10.1520   30.6250 C.ar      1 P5J        -0.0686
     30 C26       -18.2410    9.5100   29.7640 C.ar      1 P5J        -0.0616
     31 C28       -20.0620   14.0620   29.8740 C.ar      1 P5J         0.0525
     32 C29       -20.7160   13.6980   28.6800 C.ar      1 P5J         0.0362
     33 N30       -22.0100   13.3900   28.7110 N.ar      1 P5J        -0.2589
     34 N32       -22.1210   13.7640   30.9950 N.ar      1 P5J        -0.2589
     35 H1        -18.8349   16.1028   31.2332 H         1 P5J         0.0612
     36 H2        -16.4452   16.6726   31.1383 H         1 P5J         0.1349
     37 H3        -13.2268   13.9832   28.4679 H         1 P5J         0.0671
     38 H4        -13.3826   12.6182   26.7231 H         1 P5J         0.0794
     39 H5        -13.3260   10.6226   25.2938 H         1 P5J         0.0603
     40 H6        -17.2796   11.4565   28.1373 H         1 P5J         0.0634
     41 H7        -22.0209    9.5182   28.9972 H         1 P5J         0.0599
     42 H8        -21.1698   10.6495   31.0242 H         1 P5J         0.0559
     43 H9        -19.2672    8.8229   25.4771 H         1 P5J         0.0081
     44 H10       -18.1834   10.0527   24.7427 H         1 P5J         0.0081
     45 H11       -19.0059   10.3969   26.3021 H         1 P5J         0.0081
     46 H12       -20.3779   14.3656   31.9996 H         1 P5J         0.0964
     47 H13       -24.4629   12.8154   28.8024 H         1 P5J         0.0474
     48 H14       -24.7494   13.9248   30.1858 H         1 P5J         0.0474
     49 H15       -24.3334   12.2034   30.4862 H         1 P5J         0.0474
     50 H16       -14.7573    8.3734   24.5353 H         1 P5J         0.2422
     51 H17       -16.8203    7.9539   28.2551 H         1 P5J         0.0276
     52 H18       -18.1968    7.2479   27.3421 H         1 P5J         0.0276
     53 H19       -20.4523    8.3654   27.4766 H         1 P5J         0.0556
     54 H20       -18.7458   10.6526   31.5103 H         1 P5J         0.0599
     55 H21       -17.1802    9.5030   29.9870 H         1 P5J         0.0556
     56 H22       -20.1695   13.6692   27.7443 H         1 P5J         0.0964
@<TRIPOS>BOND
     1    1    2 1  
     2    1   20 2  
     3   31    1 1  
     4    2    3 2  
     5    3   19 1  
     6    4    5 2  
     7    4   19 1  
     8   20    4 1  
     9    5    6 1  
    10    5   22 1  
    11    6   21 2  
    12    7    8 ar 
    13   22    7 ar 
    14    8   23 ar 
    15   22    9 ar 
    16    9   24 ar 
    17   10   11 1  
    18   10   15 1  
    19   24   10 1  
    20   10   27 1  
    21   11   25 2  
    22   11   26 am 
    23   27   12 1  
    24   12   28 ar 
    25   12   30 ar 
    26   13   14 ar 
    27   28   13 ar 
    28   14   29 ar 
    29   16   18 1  
    30   16   33 ar 
    31   34   16 ar 
    32   17   31 ar 
    33   17   34 ar 
    34   19   21 1  
    35   23   24 ar 
    36   23   26 1  
    37   29   30 ar 
    38   31   32 ar 
    39   32   33 ar 
    40    2   35 1  
    41    3   36 1  
    42    6   37 1  
    43    7   38 1  
    44    8   39 1  
    45    9   40 1  
    46   13   41 1  
    47   14   42 1  
    48   15   43 1  
    49   15   44 1  
    50   15   45 1  
    51   17   46 1  
    52   18   47 1  
    53   18   48 1  
    54   18   49 1  
    55   26   50 1  
    56   27   51 1  
    57   27   52 1  
    58   28   53 1  
    59   29   54 1  
    60   30   55 1  
    61   32   56 1  
@<TRIPOS>SUBSTRUCTURE
     1 P5J         1

