### 
### Created by X-TOOL on Mon Aug  2 16:16:15 2021
### 

@<TRIPOS>MOLECULE
6pyu_ligand
   49    54     1     0     0
SMALL
GAST_HUCK


@<TRIPOS>ATOM
      1 C2         42.5570   12.4970   36.2370 C.2       1 P5V         0.2327
      2 C4         40.4140   12.0870   35.6710 C.ar      1 P5V         0.0990
      3 C5         39.1670   11.5020   35.5190 C.ar      1 P5V        -0.0060
      4 C6         38.1330   12.2460   34.9930 C.ar      1 P5V        -0.0364
      5 C7         38.3190   13.5940   34.6040 C.ar      1 P5V         0.0010
      6 C8         39.5870   14.1760   34.7880 C.ar      1 P5V        -0.0431
      7 C11        42.0720   14.9790   36.5520 C.3       1 P5V        -0.0524
      8 C12        42.3510   16.1890   35.6300 C.3       1 P5V        -0.0422
      9 C15        43.3070   13.1930   33.5030 C.2       1 P5V         0.1704
     10 C17        44.1600   13.6460   32.3600 C.3       1 P5V         0.0480
     11 C18        44.5110   12.6060   31.3000 C.3       1 P5V        -0.0309
     12 C19        43.5050   13.7220   30.9860 C.3       1 P5V        -0.0309
     13 C21        36.1170   13.7370   33.4470 C.ar      1 P5V        -0.0264
     14 C24        33.0180   14.5640   31.9070 C.ar      1 P5V         0.0420
     15 C27        35.0660   15.8950   33.0330 C.ar      1 P5V         0.0740
     16 O1         43.6740   12.3050   36.6280 O.2       1 P5V        -0.3172
     17 N3         41.5810   11.5700   36.1930 N.am      1 P5V        -0.2164
     18 C9         40.6070   13.4260   35.3000 C.ar      1 P5V        -0.0023
     19 C10        42.0380   13.7670   35.6110 C.3       1 P5V         0.1190
     20 C13        43.1130   15.5430   34.4400 C.3       1 P5V         0.0206
     21 N14        42.8740   14.0780   34.4510 N.am      1 P5V        -0.3056
     22 O16        43.0580   12.0010   33.5640 O.2       1 P5V        -0.3978
     23 C20        37.1910   14.3770   34.0350 C.ar      1 P5V        -0.0080
     24 C22        35.0540   14.4800   32.9510 C.ar      1 P5V         0.0727
     25 N23        34.0260   13.8500   32.3780 N.ar      1 P5V        -0.2713
     26 C25        33.0120   15.9620   32.0050 C.ar      1 P5V         0.0424
     27 N26        34.0350   16.6110   32.5460 N.ar      1 P5V        -0.2702
     28 C28        36.1500   16.5140   33.6330 C.ar      1 P5V        -0.0305
     29 C29        37.1760   15.7790   34.1000 C.ar      1 P5V        -0.0442
     30 H1         39.0066   10.4704   35.8107 H         1 P5V         0.0603
     31 H2         37.1570   11.7893   34.8748 H         1 P5V         0.0822
     32 H3         39.7532   15.2143   34.5247 H         1 P5V         0.0788
     33 H4         41.1065   15.0978   37.0654 H         1 P5V         0.0149
     34 H5         42.8727   14.8677   37.2979 H         1 P5V         0.0149
     35 H6         42.9733   16.9401   36.1386 H         1 P5V         0.0274
     36 H7         41.4135   16.6561   35.2940 H         1 P5V         0.0274
     37 H8         44.8918   14.3999   32.6856 H         1 P5V         0.0538
     38 H9         44.1649   11.5678   31.4111 H         1 P5V         0.0294
     39 H10        45.5054   12.6127   30.8299 H         1 P5V         0.0294
     40 H11        43.7777   14.5290   30.2901 H         1 P5V         0.0294
     41 H12        42.4372   13.4842   30.8714 H         1 P5V         0.0294
     42 H13        36.1042   12.6556   33.3729 H         1 P5V         0.0651
     43 H14        32.1817   14.0594   31.4369 H         1 P5V         0.0946
     44 H15        41.6891   10.6246   36.5005 H         1 P5V         0.2424
     45 H16        44.1902   15.7416   34.5405 H         1 P5V         0.0509
     46 H17        42.7483   15.9690   33.4937 H         1 P5V         0.0509
     47 H18        32.1603   16.5205   31.6339 H         1 P5V         0.0939
     48 H19        36.1720   17.5937   33.7267 H         1 P5V         0.0674
     49 H20        38.0234   16.2893   34.5434 H         1 P5V         0.0677
@<TRIPOS>BOND
     1    1   16 2  
     2    1   17 am 
     3   19    1 1  
     4    3    2 ar 
     5    2   17 1  
     6   18    2 ar 
     7    4    3 ar 
     8    5    4 ar 
     9    5    6 ar 
    10   23    5 1  
    11    6   18 ar 
    12    7    8 1  
    13   19    7 1  
    14   20    8 1  
    15    9   10 1  
    16   21    9 am 
    17    9   22 2  
    18   10   11 1  
    19   10   12 1  
    20   12   11 1  
    21   13   23 ar 
    22   24   13 ar 
    23   25   14 ar 
    24   14   26 ar 
    25   24   15 ar 
    26   15   27 ar 
    27   15   28 ar 
    28   18   19 1  
    29   19   21 1  
    30   21   20 1  
    31   23   29 ar 
    32   24   25 ar 
    33   26   27 ar 
    34   28   29 ar 
    35    3   30 1  
    36    4   31 1  
    37    6   32 1  
    38    7   33 1  
    39    7   34 1  
    40    8   35 1  
    41    8   36 1  
    42   10   37 1  
    43   11   38 1  
    44   11   39 1  
    45   12   40 1  
    46   12   41 1  
    47   13   42 1  
    48   14   43 1  
    49   17   44 1  
    50   20   45 1  
    51   20   46 1  
    52   26   47 1  
    53   28   48 1  
    54   29   49 1  
@<TRIPOS>SUBSTRUCTURE
     1 P5V         1

