### 
### Created by X-TOOL on Mon Aug  2 16:16:16 2021
### 

@<TRIPOS>MOLECULE
6pz4_ligand
   55    58     1     0     0
SMALL
GAST_HUCK


@<TRIPOS>ATOM
      1 C13        64.5310   49.0930   10.4070 C.3       1 P6J         0.0365
      2 O1         64.7410   47.6900   10.1890 O.3       1 P6J        -0.3816
      3 C12        65.9410   47.2030   10.8440 C.3       1 P6J         0.0613
      4 C9         67.1050   47.3960    9.9030 C.3       1 P6J         0.0407
      5 C8         67.8610   48.6950   10.0740 C.3       1 P6J        -0.0029
      6 C14        68.5280   47.3590   10.4580 C.3       1 P6J        -0.0363
      7 S1         66.9320   46.7240    8.2280 S.3       1 P6J        -0.0790
      8 C10        66.6830   48.1950    7.3230 C.cat     1 P6J         0.2588
      9 N2         65.8650   48.2070    6.2870 N.pl3     1 P6J        -0.2674
     10 N1         67.3160   49.3670    7.7080 N.pl3     1 P6J        -0.2849
     11 C1         68.3160   49.4360    8.8060 C.3       1 P6J         0.0964
     12 C11        68.4240   50.9450    9.0980 C.3       1 P6J        -0.0442
     13 C2         69.7010   48.9570    8.3180 C.ar      1 P6J         0.0152
     14 C3         69.9090   48.4440    7.0380 C.ar      1 P6J        -0.0224
     15 C7         70.8120   49.0750    9.1590 C.ar      1 P6J         0.1857
     16 F1         70.6860   49.5630   10.4050 F         1 P6J        -0.1653
     17 C6         72.0630   48.6700    8.7330 C.ar      1 P6J         0.1866
     18 F2         73.1020   48.7910    9.5940 F         1 P6J        -0.1793
     19 C5         72.2610   48.1520    7.4550 C.ar      1 P6J         0.0225
     20 C4         71.1680   48.0360    6.5790 C.ar      1 P6J         0.0891
     21 N3         71.2590   47.4850    5.3530 N.am      1 P6J        -0.2286
     22 C15        72.3440   46.9280    4.7810 C.2       1 P6J         0.2504
     23 O2         73.4980   46.9440    5.2260 O.2       1 P6J        -0.3700
     24 C16        72.0750   46.2630    3.4260 C.ar      1 P6J         0.1460
     25 C19        72.9940   45.3820    2.8670 C.ar      1 P6J         0.0504
     26 N5         72.7420   44.8010    1.7000 N.ar      1 P6J        -0.2421
     27 N4         70.9320   46.5080    2.7720 N.ar      1 P6J        -0.2611
     28 C17        70.6740   45.9350    1.6110 C.ar      1 P6J         0.0771
     29 C18        71.5900   45.0600    1.0450 C.ar      1 P6J         0.2020
     30 O3         71.2600   44.5170   -0.1560 O.3       1 P6J        -0.2752
     31 C20        72.2360   43.6860   -0.8150 C.3       1 P6J         0.1372
     32 C21        73.3430   44.5010   -1.3240 C.1       1 P6J        -0.0712
     33 C22        74.2050   45.1590   -1.7240 C.1       1 P6J        -0.1164
     34 H1         63.6125   49.4107    9.8918 H         1 P6J         0.0523
     35 H2         65.3877   49.6579   10.0108 H         1 P6J         0.0523
     36 H3         64.4318   49.2857   11.4854 H         1 P6J         0.0523
     37 H4         65.8279   46.1350   11.0817 H         1 P6J         0.0573
     38 H5         66.1145   47.7687   11.7713 H         1 P6J         0.0573
     39 H6         67.5742   49.4165   10.8532 H         1 P6J         0.0258
     40 H7         69.3491   46.9556    9.8472 H         1 P6J         0.0275
     41 H8         68.7024   47.1124   11.5157 H         1 P6J         0.0275
     42 H9         65.7204   49.0771    5.7551 H         1 P6J         0.3186
     43 H10        65.3714   47.3463    6.0106 H         1 P6J         0.3186
     44 H11        67.0810   50.2357    7.2069 H         1 P6J         0.3101
     45 H12        68.7496   51.4719    8.1890 H         1 P6J         0.0171
     46 H13        69.1572   51.1116    9.9009 H         1 P6J         0.0171
     47 H14        67.4423   51.3288    9.4125 H         1 P6J         0.0171
     48 H15        69.0600   48.3573    6.3696 H         1 P6J         0.0645
     49 H16        73.2501   47.8409    7.1387 H         1 P6J         0.0748
     50 H17        70.4236   47.4901    4.8034 H         1 P6J         0.2247
     51 H18        73.9210   45.1684    3.3866 H         1 P6J         0.0942
     52 H19        69.7433   46.1489    1.0981 H         1 P6J         0.0874
     53 H20        71.7570   43.1610   -1.6546 H         1 P6J         0.0764
     54 H21        72.6282   42.9498   -0.0980 H         1 P6J         0.0764
     55 H22        74.9925   45.7602   -2.0894 H         1 P6J         0.1229
@<TRIPOS>BOND
     1    1    2 1  
     2    2    3 1  
     3    3    4 1  
     4    4    5 1  
     5    4    6 1  
     6    4    7 1  
     7    5    6 1  
     8    5   11 1  
     9    7    8 1  
    10    8    9 ar 
    11    8   10 ar 
    12   10   11 1  
    13   11   12 1  
    14   11   13 1  
    15   13   14 ar 
    16   13   15 ar 
    17   14   20 ar 
    18   15   16 1  
    19   15   17 ar 
    20   17   18 1  
    21   17   19 ar 
    22   19   20 ar 
    23   20   21 1  
    24   21   22 am 
    25   22   23 2  
    26   22   24 1  
    27   24   25 ar 
    28   24   27 ar 
    29   25   26 ar 
    30   26   29 ar 
    31   27   28 ar 
    32   28   29 ar 
    33   29   30 1  
    34   30   31 1  
    35   31   32 1  
    36   32   33 3  
    37    1   34 1  
    38    1   35 1  
    39    1   36 1  
    40    3   37 1  
    41    3   38 1  
    42    5   39 1  
    43    6   40 1  
    44    6   41 1  
    45    9   42 1  
    46    9   43 1  
    47   10   44 1  
    48   12   45 1  
    49   12   46 1  
    50   12   47 1  
    51   14   48 1  
    52   19   49 1  
    53   21   50 1  
    54   25   51 1  
    55   28   52 1  
    56   31   53 1  
    57   31   54 1  
    58   33   55 1  
@<TRIPOS>SUBSTRUCTURE
     1 P6J         1

