### 
### Created by X-TOOL on Wed Jan  1 15:39:34 2020
### 

@<TRIPOS>MOLECULE
6q3q_ligand
  118   117     1     0     0
SMALL
GAST_HUCK


@<TRIPOS>ATOM
      1 N         -52.8380  -12.7790   -6.2120 N.4       1 GLY         0.2357
      2 CA        -54.1910  -12.5840   -6.8180 C.3       1 GLY         0.0545
      3 C         -55.1400  -11.6860   -6.0210 C.2       1 GLY         0.2237
      4 O         -54.7560  -10.5860   -5.5810 O.2       1 GLY        -0.3910
      5 N         -56.3760  -12.1540   -5.8300 N.am      1 SER        -0.2591
      6 CA        -57.4540  -11.2810   -5.3840 C.3       1 SER         0.1540
      7 C         -57.5340  -11.4030   -3.8980 C.2       1 SER         0.2062
      8 O         -58.0060  -12.4370   -3.4010 O.2       1 SER        -0.3943
      9 CB        -58.8020  -11.6990   -5.9730 C.3       1 SER         0.0843
     10 OG        -58.8550  -11.4570   -7.3480 O.3       1 SER        -0.3903
     11 N         -57.0530  -10.3860   -3.1860 N.am      1 LYS        -0.2637
     12 CA        -57.1970  -10.3640   -1.7180 C.3       1 LYS         0.1310
     13 C         -58.5450   -9.7610   -1.4020 C.2       1 LYS         0.2039
     14 O         -58.7800   -8.5660   -1.6860 O.2       1 LYS        -0.3944
     15 CB        -56.0710   -9.5720   -1.0610 C.3       1 LYS        -0.0122
     16 CG        -54.7110  -10.0200   -1.5570 C.3       1 LYS        -0.0440
     17 CD        -53.6240   -9.7420   -0.5450 C.3       1 LYS        -0.0124
     18 CE        -52.2790  -10.1830   -1.1040 C.3       1 LYS        -0.0354
     19 NZ        -51.1720  -10.0220   -0.1210 N.4       1 LYS         0.2185
     20 N         -59.4360  -10.5930   -0.8630 N.am      1 MET        -0.2637
     21 CA        -60.7830  -10.1890   -0.4460 C.3       1 MET         0.1317
     22 C         -60.8580   -9.0210    0.5120 C.2       1 MET         0.2039
     23 O         -61.8830   -8.3040    0.5730 O.2       1 MET        -0.3944
     24 CB        -61.4280  -11.3400    0.3220 C.3       1 MET        -0.0034
     25 CG        -62.0770  -12.3360   -0.5500 C.3       1 MET        -0.0024
     26 SD        -62.9890  -13.3570    0.5760 S.3       1 MET        -0.1639
     27 CE        -64.5050  -12.4360    0.7700 C.3       1 MET        -0.0181
     28 N         -59.8280   -8.9050    1.3380 N.am      1 GLU        -0.2636
     29 CA        -59.7760   -7.8530    2.3370 C.3       1 GLU         0.1325
     30 C         -59.3060   -6.4990    1.7230 C.2       1 GLU         0.2040
     31 O         -59.1040   -5.5400    2.4740 O.2       1 GLU        -0.3944
     32 CB        -58.8940   -8.2660    3.5470 C.3       1 GLU        -0.0008
     33 CG        -57.3660   -8.1930    3.3680 C.3       1 GLU         0.0044
     34 CD        -56.7470   -9.4360    2.7360 C.2       1 GLU         0.0350
     35 OE1       -55.5150   -9.5680    2.8360 O.co2     1 GLU        -0.5690
     36 OE2       -57.4820  -10.2830    2.1540 O.co2     1 GLU        -0.5690
     37 N         -59.0860   -6.4640    0.4050 N.am      1 GLU        -0.2636
     38 CA        -58.7170   -5.2700   -0.3290 C.3       1 GLU         0.1325
     39 C         -59.8380   -4.8850   -1.2740 C.2       1 GLU         0.2040
     40 O         -60.4180   -5.7190   -1.9880 O.2       1 GLU        -0.3944
     41 CB        -57.4420   -5.5050   -1.1420 C.3       1 GLU        -0.0008
     42 CG        -56.2490   -5.8300   -0.2690 C.3       1 GLU         0.0044
     43 CD        -54.9400   -5.9410   -1.0380 C.2       1 GLU         0.0350
     44 OE1       -54.9140   -6.4430   -2.1830 O.co2     1 GLU        -0.5690
     45 OE2       -53.9250   -5.5330   -0.4630 O.co2     1 GLU        -0.5690
     46 N         -60.1010   -3.5890   -1.2960 N.am      1 VAL        -0.2635
     47 CA        -61.0460   -3.0050   -2.2100 C.3       1 VAL         0.1332
     48 C         -60.2610   -2.4780   -3.4370 C.2       1 VAL         0.2037
     49 O         -59.0250   -2.4150   -3.4010 O.2       1 VAL        -0.3944
     50 CB        -61.9130   -1.9240   -1.5080 C.3       1 VAL        -0.0063
     51 CG1       -62.9630   -2.5730   -0.6060 C.3       1 VAL        -0.0584
     52 CG2       -61.0510   -0.9240   -0.7470 C.3       1 VAL        -0.0584
     53 N         -60.9850   -2.1490   -4.5110 N.am      1 ASP        -0.2679
     54 CA        -60.3860   -1.8170   -5.8090 C.3       1 ASP         0.1057
     55 C         -60.8510   -0.4790   -6.3310 C.2       1 ASP         0.0618
     56 O         -60.4030   -0.1110   -7.4110 O.co2     1 ASP        -0.5665
     57 CB        -60.7220   -2.9060   -6.8160 C.3       1 ASP         0.0351
     58 CG        -60.1040   -4.2460   -6.4130 C.2       1 ASP         0.0387
     59 OD1       -58.9530   -4.4790   -6.7880 O.co2     1 ASP        -0.5688
     60 OD2       -60.7240   -5.0190   -5.6500 O.co2     1 ASP        -0.5688
     61 OXT       -61.6710    0.2240   -5.7250 O.co2     1 ASP        -0.5665
     62 H1        -52.2880  -13.3809   -6.8047 H         1 GLY         0.2012
     63 H2        -52.9351  -13.2013   -5.3019 H         1 GLY         0.2012
     64 H3        -52.3787  -11.8863   -6.1210 H         1 GLY         0.2012
     65 H4        -54.6635  -13.5721   -6.9202 H         1 GLY         0.1061
     66 H5        -54.0563  -12.1371   -7.8141 H         1 GLY         0.1061
     67 H6        -56.5653  -13.1218   -5.9962 H         1 SER         0.1885
     68 H7        -57.2337  -10.2426   -5.6724 H         1 SER         0.0823
     69 H8        -59.6013  -11.1278   -5.4781 H         1 SER         0.0606
     70 H9        -58.9535  -12.7735   -5.7927 H         1 SER         0.0606
     71 H10       -58.1696  -11.9513   -7.7820 H         1 SER         0.2097
     72 H11       -56.5903   -9.6308   -3.6502 H         1 LYS         0.1883
     73 H12       -57.1644  -11.3954   -1.3370 H         1 LYS         0.0800
     74 H13       -56.1198   -9.7185    0.0281 H         1 LYS         0.0312
     75 H14       -56.2021   -8.5049   -1.2937 H         1 LYS         0.0312
     76 H15       -54.4767   -9.4823   -2.4876 H         1 LYS         0.0269
     77 H16       -54.7434  -11.1013   -1.7564 H         1 LYS         0.0269
     78 H17       -53.8352  -10.2974    0.3807 H         1 LYS         0.0317
     79 H18       -53.5939   -8.6642   -0.3272 H         1 LYS         0.0317
     80 H19       -52.0513   -9.5777   -1.9938 H         1 LYS         0.0813
     81 H20       -52.3460  -11.2433   -1.3891 H         1 LYS         0.0813
     82 H21       -50.3060  -10.3265   -0.5374 H         1 LYS         0.1994
     83 H22       -51.3654  -10.5784    0.6969 H         1 LYS         0.1994
     84 H23       -51.0952   -9.0522    0.1428 H         1 LYS         0.1994
     85 H24       -59.1706  -11.5487   -0.7354 H         1 MET         0.1883
     86 H25       -61.3652   -9.9521   -1.3487 H         1 MET         0.0800
     87 H26       -62.1870  -10.9240    1.0008 H         1 MET         0.0320
     88 H27       -60.6486  -11.8468    0.9099 H         1 MET         0.0320
     89 H28       -61.3265  -12.9276   -1.0948 H         1 MET         0.0378
     90 H29       -62.7510  -11.8471   -1.2688 H         1 MET         0.0378
     91 H30       -65.1739  -12.9719    1.4594 H         1 MET         0.0340
     92 H31       -64.9965  -12.3285   -0.2082 H         1 MET         0.0340
     93 H32       -64.2792  -11.4399    1.1784 H         1 MET         0.0340
     94 H33       -59.0713   -9.5554    1.2717 H         1 GLU         0.1883
     95 H34       -60.7996   -7.7051    2.7116 H         1 GLU         0.0801
     96 H35       -59.1472   -9.3061    3.8001 H         1 GLU         0.0330
     97 H36       -59.1594   -7.6089    4.3883 H         1 GLU         0.0330
     98 H37       -56.9099   -8.0467    4.3582 H         1 GLU         0.0433
     99 H38       -57.1353   -7.3295    2.7268 H         1 GLU         0.0433
    100 H39       -59.1823   -7.3170   -0.1079 H         1 GLU         0.1883
    101 H40       -58.5439   -4.4507    0.3843 H         1 GLU         0.0801
    102 H41       -57.2192   -4.5956   -1.7193 H         1 GLU         0.0330
    103 H42       -57.6133   -6.3445   -1.8318 H         1 GLU         0.0330
    104 H43       -56.4383   -6.7895    0.2346 H         1 GLU         0.0433
    105 H44       -56.1430   -5.0353    0.4841 H         1 GLU         0.0433
    106 H45       -59.6240   -2.9913   -0.6516 H         1 VAL         0.1883
    107 H46       -61.7275   -3.7952   -2.5581 H         1 VAL         0.0802
    108 H47       -62.4481   -1.3670   -2.2912 H         1 VAL         0.0343
    109 H48       -63.5638   -1.7899   -0.1205 H         1 VAL         0.0234
    110 H49       -62.4617   -3.1798    0.1624 H         1 VAL         0.0234
    111 H50       -63.6190   -3.2162   -1.2109 H         1 VAL         0.0234
    112 H51       -60.3115   -0.4821   -1.4311 H         1 VAL         0.0234
    113 H52       -60.5297   -1.4389    0.0734 H         1 VAL         0.0234
    114 H53       -61.6894   -0.1291   -0.3341 H         1 VAL         0.0234
    115 H54       -61.9812   -2.1281   -4.4263 H         1 ASP         0.1876
    116 H55       -59.2939   -1.7759   -5.6837 H         1 ASP         0.0745
    117 H56       -60.3327   -2.6142   -7.8025 H         1 ASP         0.0471
    118 H57       -61.8149   -3.0178   -6.8715 H         1 ASP         0.0471
@<TRIPOS>BOND
     1    1    2 1  
     2    2    3 1  
     3    3    4 2  
     4    3    5 am 
     5    5    6 1  
     6    6    7 1  
     7    6    9 1  
     8    7    8 2  
     9    7   11 am 
    10    9   10 1  
    11   11   12 1  
    12   12   13 1  
    13   12   15 1  
    14   13   14 2  
    15   13   20 am 
    16   15   16 1  
    17   16   17 1  
    18   17   18 1  
    19   18   19 1  
    20   20   21 1  
    21   21   22 1  
    22   21   24 1  
    23   22   23 2  
    24   22   28 am 
    25   24   25 1  
    26   25   26 1  
    27   26   27 1  
    28   28   29 1  
    29   29   30 1  
    30   29   32 1  
    31   30   31 2  
    32   30   37 am 
    33   32   33 1  
    34   33   34 1  
    35   34   35 ar 
    36   34   36 ar 
    37   37   38 1  
    38   38   39 1  
    39   38   41 1  
    40   39   40 2  
    41   39   46 am 
    42   41   42 1  
    43   42   43 1  
    44   43   44 ar 
    45   43   45 ar 
    46   46   47 1  
    47   47   48 1  
    48   47   50 1  
    49   48   49 2  
    50   48   53 am 
    51   50   51 1  
    52   50   52 1  
    53   53   54 1  
    54   54   55 1  
    55   54   57 1  
    56   55   56 ar 
    57   55   61 ar 
    58   57   58 1  
    59   58   59 ar 
    60   58   60 ar 
    61    1   62 1  
    62    1   63 1  
    63    1   64 1  
    64    2   65 1  
    65    2   66 1  
    66    5   67 1  
    67    6   68 1  
    68    9   69 1  
    69    9   70 1  
    70   10   71 1  
    71   11   72 1  
    72   12   73 1  
    73   15   74 1  
    74   15   75 1  
    75   16   76 1  
    76   16   77 1  
    77   17   78 1  
    78   17   79 1  
    79   18   80 1  
    80   18   81 1  
    81   19   82 1  
    82   19   83 1  
    83   19   84 1  
    84   20   85 1  
    85   21   86 1  
    86   24   87 1  
    87   24   88 1  
    88   25   89 1  
    89   25   90 1  
    90   27   91 1  
    91   27   92 1  
    92   27   93 1  
    93   28   94 1  
    94   29   95 1  
    95   32   96 1  
    96   32   97 1  
    97   33   98 1  
    98   33   99 1  
    99   37  100 1  
   100   38  101 1  
   101   41  102 1  
   102   41  103 1  
   103   42  104 1  
   104   42  105 1  
   105   46  106 1  
   106   47  107 1  
   107   50  108 1  
   108   51  109 1  
   109   51  110 1  
   110   51  111 1  
   111   52  112 1  
   112   52  113 1  
   113   52  114 1  
   114   53  115 1  
   115   54  116 1  
   116   57  117 1  
   117   57  118 1  
@<TRIPOS>SUBSTRUCTURE
     1 GLY         1

