### 
### Created by X-TOOL on Mon Aug  2 16:16:16 2021
### 

@<TRIPOS>MOLECULE
6q3y_ligand
   77    81     1     0     0
SMALL
GAST_HUCK


@<TRIPOS>ATOM
      1 O1         22.0800   12.4730   32.8170 O.2       1 HG5        -0.3839
      2 C29        21.4840   11.7580   32.0210 C.2       1 HG5         0.2285
      3 N          20.1050   11.7260   31.9560 N.am      1 HG5        -0.2210
      4 C          19.3730   12.5440   32.9190 C.3       1 HG5         0.0422
      5 C11        22.2420   10.7820   31.1370 C.3       1 HG5         0.1371
      6 C12        22.8210    9.6420   31.9770 C.3       1 HG5        -0.0146
      7 C13        21.7430    8.7630   32.5850 C.3       1 HG5        -0.0610
      8 N2         21.4650   10.2540   30.0070 N.pl3     1 HG5        -0.2603
      9 C4         22.1840   10.0540   28.7440 C.3       1 HG5         0.0662
     10 C5         22.9460    8.7560   28.6280 C.ar      1 HG5        -0.0207
     11 C10        24.3330    8.7340   28.7070 C.ar      1 HG5        -0.0584
     12 C9         25.0340    7.5600   28.4950 C.ar      1 HG5        -0.0685
     13 C8         24.3620    6.3960   28.2010 C.ar      1 HG5        -0.0687
     14 C7         22.9840    6.4000   28.1400 C.ar      1 HG5        -0.0685
     15 C6         22.2800    7.5690   28.3570 C.ar      1 HG5        -0.0584
     16 C3         20.0740   10.1370   30.1000 C.ar      1 HG5         0.1471
     17 C1         19.4010   10.7920   31.1600 C.ar      1 HG5         0.1270
     18 N3         19.4420    9.3120   29.2440 N.ar      1 HG5        -0.2520
     19 C14        18.1260    9.1080   29.4830 C.ar      1 HG5         0.1750
     20 N1         17.4050    9.6060   30.5080 N.ar      1 HG5        -0.2887
     21 C2         18.0610   10.4370   31.3330 C.ar      1 HG5         0.0194
     22 N4         17.4680    8.4180   28.5030 N.pl3     1 HG5        -0.2593
     23 C15        16.1120    8.2540   28.1990 C.ar      1 HG5         0.0859
     24 C28        15.0980    8.9320   28.8710 C.ar      1 HG5        -0.0532
     25 C27        13.7920    8.8420   28.4230 C.ar      1 HG5        -0.0808
     26 C20        13.4610    8.0790   27.3110 C.ar      1 HG5        -0.0597
     27 C19        14.4620    7.3450   26.6750 C.ar      1 HG5        -0.0404
     28 C16        15.7790    7.4410   27.1120 C.ar      1 HG5         0.1086
     29 O          16.8500    6.8020   26.5360 O.3       1 HG5        -0.3240
     30 C17        16.6100    5.6480   25.7110 C.3       1 HG5         0.0650
     31 C18        17.9600    5.1460   25.2180 C.3       1 HG5        -0.0375
     32 C21        12.0710    8.1740   26.7090 C.3       1 HG5        -0.0055
     33 C26        11.7450    9.5890   26.2180 C.3       1 HG5        -0.0015
     34 C25        10.3350    9.6540   25.6370 C.3       1 HG5        -0.0303
     35 N5          9.3390    9.2440   26.6250 N.4       1 HG5         0.2333
     36 C24         7.9830    9.4000   26.0890 C.3       1 HG5        -0.0431
     37 C23         9.5840    7.8570   27.0180 C.3       1 HG5        -0.0303
     38 C22        10.9650    7.7020   27.6620 C.3       1 HG5        -0.0015
     39 H1         20.0751   13.2077   33.4449 H         1 HG5         0.0544
     40 H2         18.8702   11.8910   33.6476 H         1 HG5         0.0544
     41 H3         18.6223   13.1496   32.3901 H         1 HG5         0.0544
     42 H4         23.0881   11.3369   30.7056 H         1 HG5         0.0807
     43 H5         23.4242   10.0734   32.7894 H         1 HG5         0.0310
     44 H6         23.4621    9.0206   31.3345 H         1 HG5         0.0310
     45 H7         22.2125    7.9629   33.1762 H         1 HG5         0.0232
     46 H8         21.1366    8.3181   31.7823 H         1 HG5         0.0232
     47 H9         21.0988    9.3709   33.2372 H         1 HG5         0.0232
     48 H10        22.9016   10.8796   28.6282 H         1 HG5         0.0687
     49 H11        21.4490   10.0896   27.9264 H         1 HG5         0.0687
     50 H12        24.8716    9.6461   28.9371 H         1 HG5         0.0557
     51 H13        26.1160    7.5574   28.5608 H         1 HG5         0.0599
     52 H14        24.9127    5.4804   28.0182 H         1 HG5         0.0559
     53 H15        22.4509    5.4819   27.9208 H         1 HG5         0.0599
     54 H16        21.1969    7.5588   28.3151 H         1 HG5         0.0557
     55 H17        17.5234   10.8541   32.1769 H         1 HG5         0.0702
     56 H18        18.0972    7.9182   27.8587 H         1 HG5         0.2089
     57 H19        15.3318    9.5299   29.7445 H         1 HG5         0.0484
     58 H20        13.0114    9.3780   28.9508 H         1 HG5         0.0435
     59 H21        14.2136    6.6997   25.8401 H         1 HG5         0.0448
     60 H22        15.9770    5.9241   24.8548 H         1 HG5         0.0607
     61 H23        16.1102    4.8640   26.2988 H         1 HG5         0.0607
     62 H24        17.8120    4.2609   24.5819 H         1 HG5         0.0255
     63 H25        18.5883    4.8771   26.0799 H         1 HG5         0.0255
     64 H26        18.4551    5.9372   24.6359 H         1 HG5         0.0255
     65 H27        12.0574    7.5075   25.8340 H         1 HG5         0.0442
     66 H28        12.4682    9.8757   25.4403 H         1 HG5         0.0339
     67 H29        11.8186   10.2891   27.0632 H         1 HG5         0.0339
     68 H30        10.2740    8.9845   24.7664 H         1 HG5         0.0816
     69 H31        10.1238   10.6863   25.3212 H         1 HG5         0.0816
     70 H32         9.4301    9.8314   27.4390 H         1 HG5         0.2031
     71 H33         7.2506    9.0864   26.8475 H         1 HG5         0.0777
     72 H34         7.8700    8.7761   25.1902 H         1 HG5         0.0777
     73 H35         7.8112   10.4545   25.8274 H         1 HG5         0.0777
     74 H36         9.5297    7.2159   26.1258 H         1 HG5         0.0816
     75 H37         8.8142    7.5468   27.7399 H         1 HG5         0.0816
     76 H38        11.0023    8.3030   28.5825 H         1 HG5         0.0339
     77 H39        11.1302    6.6428   27.9087 H         1 HG5         0.0339
@<TRIPOS>BOND
     1    1    2 2  
     2    2    3 am 
     3    2    5 1  
     4    3    4 1  
     5    3   17 1  
     6    5    6 1  
     7    5    8 1  
     8    6    7 1  
     9    8    9 1  
    10    8   16 1  
    11    9   10 1  
    12   10   11 ar 
    13   10   15 ar 
    14   11   12 ar 
    15   12   13 ar 
    16   13   14 ar 
    17   14   15 ar 
    18   16   17 ar 
    19   16   18 ar 
    20   17   21 ar 
    21   18   19 ar 
    22   19   20 ar 
    23   19   22 1  
    24   20   21 ar 
    25   22   23 1  
    26   23   24 ar 
    27   23   28 ar 
    28   24   25 ar 
    29   25   26 ar 
    30   26   27 ar 
    31   26   32 1  
    32   27   28 ar 
    33   28   29 1  
    34   29   30 1  
    35   30   31 1  
    36   32   33 1  
    37   32   38 1  
    38   33   34 1  
    39   34   35 1  
    40   35   36 1  
    41   35   37 1  
    42   37   38 1  
    43    4   39 1  
    44    4   40 1  
    45    4   41 1  
    46    5   42 1  
    47    6   43 1  
    48    6   44 1  
    49    7   45 1  
    50    7   46 1  
    51    7   47 1  
    52    9   48 1  
    53    9   49 1  
    54   11   50 1  
    55   12   51 1  
    56   13   52 1  
    57   14   53 1  
    58   15   54 1  
    59   21   55 1  
    60   22   56 1  
    61   24   57 1  
    62   25   58 1  
    63   27   59 1  
    64   30   60 1  
    65   30   61 1  
    66   31   62 1  
    67   31   63 1  
    68   31   64 1  
    69   32   65 1  
    70   33   66 1  
    71   33   67 1  
    72   34   68 1  
    73   34   69 1  
    74   35   70 1  
    75   36   71 1  
    76   36   72 1  
    77   36   73 1  
    78   37   74 1  
    79   37   75 1  
    80   38   76 1  
    81   38   77 1  
@<TRIPOS>SUBSTRUCTURE
     1 HG5         1

