### 
### Created by X-TOOL on Mon Aug  2 16:16:16 2021
### 

@<TRIPOS>MOLECULE
6q3z_ligand
   77    81     1     0     0
SMALL
GAST_HUCK


@<TRIPOS>ATOM
      1 O1         17.6130  -13.5400   16.4450 O.2       1 HG8        -0.3839
      2 C28        18.2670  -14.3060   17.1320 C.2       1 HG8         0.2285
      3 N          19.6370  -14.3770   17.0450 N.am      1 HG8        -0.2210
      4 C          20.3250  -13.5060   16.0910 C.3       1 HG8         0.0422
      5 C10        17.5750  -15.3100   18.0330 C.3       1 HG8         0.1374
      6 C11        16.7650  -16.3010   17.1890 C.3       1 HG8        -0.0145
      7 C12        17.6170  -17.0410   16.1880 C.3       1 HG8        -0.0610
      8 N2         18.4550  -16.0230   18.9580 N.pl3     1 HG8        -0.2582
      9 C4         17.8570  -16.6250   20.1400 C.3       1 HG8         0.0776
     10 C5         17.8760  -15.7240   21.3360 C.2       1 HG8         0.0318
     11 S          16.4570  -15.3920   22.1850 S.3       1 HG8        -0.0548
     12 C9         17.2540  -14.3480   23.2860 C.2       1 HG8        -0.0262
     13 C7         18.5320  -14.2700   23.0480 C.2       1 HG8        -0.0797
     14 C8         19.4730  -13.5130   23.9240 C.3       1 HG8        -0.0471
     15 C6         18.9330  -15.0730   21.8770 C.2       1 HG8        -0.0745
     16 C3         19.7780  -16.0820   18.7990 C.ar      1 HG8         0.1474
     17 C1         20.3850  -15.3280   17.7790 C.ar      1 HG8         0.1271
     18 N3         20.4500  -16.8920   19.6220 N.ar      1 HG8        -0.2520
     19 C13        21.7490  -16.9970   19.4040 C.ar      1 HG8         0.1750
     20 N1         22.4370  -16.4140   18.4150 N.ar      1 HG8        -0.2887
     21 C2         21.7330  -15.5910   17.6190 C.ar      1 HG8         0.0194
     22 N4         22.4320  -17.7410   20.3310 N.pl3     1 HG8        -0.2593
     23 C14        23.7910  -17.9070   20.5810 C.ar      1 HG8         0.0859
     24 C27        24.7530  -17.0460   20.0710 C.ar      1 HG8        -0.0532
     25 C26        26.0880  -17.2740   20.3210 C.ar      1 HG8        -0.0808
     26 C19        26.5030  -18.3590   21.0810 C.ar      1 HG8        -0.0597
     27 C18        25.5510  -19.2490   21.5640 C.ar      1 HG8        -0.0404
     28 C15        24.2050  -19.0250   21.3200 C.ar      1 HG8         0.1086
     29 O          23.1900  -19.8510   21.7260 O.3       1 HG8        -0.3240
     30 C16        23.4770  -20.8590   22.7010 C.3       1 HG8         0.0650
     31 C17        22.2620  -21.6130   22.9330 C.3       1 HG8        -0.0375
     32 C20        27.9670  -18.5300   21.4210 C.3       1 HG8        -0.0055
     33 C25        28.6200  -17.2090   21.8480 C.3       1 HG8        -0.0015
     34 C24        30.1240  -17.3680   22.0640 C.3       1 HG8        -0.0303
     35 N5         30.7700  -17.9070   20.8730 N.4       1 HG8         0.2333
     36 C23        32.2400  -17.9660   21.0460 C.3       1 HG8        -0.0431
     37 C22        30.2260  -19.2270   20.5960 C.3       1 HG8        -0.0303
     38 C21        28.7480  -19.1460   20.2650 C.3       1 HG8        -0.0015
     39 H1         19.5950  -12.8350   15.6146 H         1 HG8         0.0544
     40 H2         20.8153  -14.1201   15.3213 H         1 HG8         0.0544
     41 H3         21.0817  -12.9081   16.6200 H         1 HG8         0.0544
     42 H4         16.8644  -14.7419   18.6513 H         1 HG8         0.0808
     43 H5         15.9850  -15.7467   16.6464 H         1 HG8         0.0310
     44 H6         16.2941  -17.0337   17.8609 H         1 HG8         0.0310
     45 H7         16.9870  -17.7353   15.6126 H         1 HG8         0.0232
     46 H8         18.3971  -17.6072   16.7179 H         1 HG8         0.0232
     47 H9         18.0880  -16.3202   15.5035 H         1 HG8         0.0232
     48 H10        18.4132  -17.5420   20.3845 H         1 HG8         0.0715
     49 H11        16.8117  -16.8801   19.9114 H         1 HG8         0.0715
     50 H12        16.7509  -13.8128   24.0900 H         1 HG8         0.0454
     51 H13        20.4934  -13.5925   23.5210 H         1 HG8         0.0342
     52 H14        19.4464  -13.9332   24.9402 H         1 HG8         0.0342
     53 H15        19.1731  -12.4552   23.9566 H         1 HG8         0.0342
     54 H16        19.9512  -15.1344   21.4956 H         1 HG8         0.0267
     55 H17        22.2535  -15.1040   16.8023 H         1 HG8         0.0702
     56 H18        21.8231  -18.2801   20.9632 H         1 HG8         0.2089
     57 H19        24.4527  -16.1921   19.4745 H         1 HG8         0.0484
     58 H20        26.8286  -16.5934   19.9167 H         1 HG8         0.0435
     59 H21        25.8612  -20.1187   22.1318 H         1 HG8         0.0448
     60 H22        23.8096  -20.3886   23.6381 H         1 HG8         0.0607
     61 H23        24.2659  -21.5277   22.3262 H         1 HG8         0.0607
     62 H24        22.4540  -22.3969   23.6804 H         1 HG8         0.0255
     63 H25        21.9329  -22.0769   21.9915 H         1 HG8         0.0255
     64 H26        21.4765  -20.9378   23.3034 H         1 HG8         0.0255
     65 H27        28.0266  -19.2230   22.2732 H         1 HG8         0.0442
     66 H28        28.1586  -16.8701   22.7873 H         1 HG8         0.0339
     67 H29        28.4498  -16.4569   21.0636 H         1 HG8         0.0339
     68 H30        30.2957  -18.0531   22.9073 H         1 HG8         0.0816
     69 H31        30.5599  -16.3850   22.2956 H         1 HG8         0.0816
     70 H32        30.5664  -17.3024   20.0926 H         1 HG8         0.2031
     71 H33        32.7003  -18.3754   20.1347 H         1 HG8         0.0777
     72 H34        32.4828  -18.6130   21.9018 H         1 HG8         0.0777
     73 H35        32.6285  -16.9535   21.2298 H         1 HG8         0.0777
     74 H36        30.3621  -19.8655   21.4813 H         1 HG8         0.0816
     75 H37        30.7626  -19.6655   19.7417 H         1 HG8         0.0816
     76 H38        28.6131  -18.5250   19.3672 H         1 HG8         0.0339
     77 H39        28.3659  -20.1591   20.0709 H         1 HG8         0.0339
@<TRIPOS>BOND
     1    1    2 2  
     2    2    3 am 
     3    2    5 1  
     4    3    4 1  
     5    3   17 1  
     6    5    6 1  
     7    5    8 1  
     8    6    7 1  
     9    8    9 1  
    10    8   16 1  
    11    9   10 1  
    12   10   11 1  
    13   10   15 2  
    14   11   12 1  
    15   12   13 2  
    16   13   14 1  
    17   13   15 1  
    18   16   17 ar 
    19   16   18 ar 
    20   17   21 ar 
    21   18   19 ar 
    22   19   20 ar 
    23   19   22 1  
    24   20   21 ar 
    25   22   23 1  
    26   23   24 ar 
    27   23   28 ar 
    28   24   25 ar 
    29   25   26 ar 
    30   26   27 ar 
    31   26   32 1  
    32   27   28 ar 
    33   28   29 1  
    34   29   30 1  
    35   30   31 1  
    36   32   33 1  
    37   32   38 1  
    38   33   34 1  
    39   34   35 1  
    40   35   36 1  
    41   35   37 1  
    42   37   38 1  
    43    4   39 1  
    44    4   40 1  
    45    4   41 1  
    46    5   42 1  
    47    6   43 1  
    48    6   44 1  
    49    7   45 1  
    50    7   46 1  
    51    7   47 1  
    52    9   48 1  
    53    9   49 1  
    54   12   50 1  
    55   14   51 1  
    56   14   52 1  
    57   14   53 1  
    58   15   54 1  
    59   21   55 1  
    60   22   56 1  
    61   24   57 1  
    62   25   58 1  
    63   27   59 1  
    64   30   60 1  
    65   30   61 1  
    66   31   62 1  
    67   31   63 1  
    68   31   64 1  
    69   32   65 1  
    70   33   66 1  
    71   33   67 1  
    72   34   68 1  
    73   34   69 1  
    74   35   70 1  
    75   36   71 1  
    76   36   72 1  
    77   36   73 1  
    78   37   74 1  
    79   37   75 1  
    80   38   76 1  
    81   38   77 1  
@<TRIPOS>SUBSTRUCTURE
     1 HG8         1

