### 
### Created by X-TOOL on Mon Aug  2 16:16:16 2021
### 

@<TRIPOS>MOLECULE
6q4e_ligand
   15    16     1     0     0
SMALL
GAST_HUCK


@<TRIPOS>ATOM
      1 C4         -1.0950   -2.3680  -26.0480 C.2       1 HH5         0.1118
      2 C5          0.3620   -3.4170  -27.2800 C.ar      1 HH5         0.1009
      3 N1          2.4850   -5.5070  -29.0350 N.pl3     1 HH5        -0.3096
      4 N2          1.0370   -6.0190  -27.2870 N.ar      1 HH5        -0.2518
      5 C3         -0.2470   -4.2980  -26.3710 C.ar      1 HH5         0.1357
      6 N3         -1.1780   -3.6100  -25.6010 N.pl3     1 HH5        -0.2417
      7 C1          1.5960   -5.0830  -28.1180 C.ar      1 HH5         0.1698
      8 C2          0.1270   -5.6130  -26.4050 C.ar      1 HH5         0.1152
      9 I1         -0.6130   -6.9780  -25.0090 I         1 HH5        -0.0150
     10 N4         -0.1610   -2.1830  -27.0370 N.2       1 HH5        -0.2847
     11 N5          1.3330   -3.7550  -28.1570 N.ar      1 HH5        -0.2678
     12 H1         -1.7156   -1.5598  -25.6637 H         1 HH5         0.1415
     13 H2          2.7450   -6.5027  -29.0783 H         1 HH5         0.1796
     14 H3          2.9054   -4.8358  -29.6936 H         1 HH5         0.1796
     15 H4         -1.7881   -3.9800  -24.8582 H         1 HH5         0.2366
@<TRIPOS>BOND
     1    6    1 1  
     2    1   10 2  
     3    5    2 ar 
     4    2   10 1  
     5    2   11 ar 
     6    7    3 1  
     7    4    7 ar 
     8    8    4 ar 
     9    5    6 1  
    10    5    8 ar 
    11    7   11 ar 
    12    8    9 1  
    13    1   12 1  
    14    3   13 1  
    15    3   14 1  
    16    6   15 1  
@<TRIPOS>SUBSTRUCTURE
     1 HH5         1

