### 
### Created by X-TOOL on Mon Aug  2 16:16:16 2021
### 

@<TRIPOS>MOLECULE
6q4g_ligand
   30    32     1     0     0
SMALL
GAST_HUCK


@<TRIPOS>ATOM
      1 C4         -0.5940   -8.2750  -26.4200 C.ar      1 HJK        -0.0560
      2 C5         -1.0490   -9.3910  -25.7280 C.ar      1 HJK        -0.0645
      3 C6         -1.2670   -9.2990  -24.3630 C.ar      1 HJK        -0.0559
      4 C11        -0.2910   -4.5080  -26.2600 C.ar      1 HJK         0.1288
      5 C7         -1.1810   -8.0860  -23.6910 C.ar      1 HJK        -0.0268
      6 C8         -1.4060   -7.9470  -22.1910 C.3       1 HJK         0.0341
      7 C9         -2.4480   -8.8260  -21.4870 C.2       1 HJK         0.0463
      8 C10        -0.6930   -7.0080  -24.3900 C.ar      1 HJK        -0.0466
      9 C12        -1.0930   -2.5990  -25.7290 C.2       1 HJK         0.1117
     10 C13         0.3200   -3.5480  -27.0760 C.ar      1 HJK         0.0996
     11 N1          2.3450   -5.5120  -29.1200 N.pl3     1 HJK        -0.3101
     12 N2          0.9450   -6.1300  -27.4380 N.ar      1 HJK        -0.2637
     13 C3         -0.4130   -7.0650  -25.7530 C.ar      1 HJK        -0.0040
     14 N3         -1.1710   -3.8690  -25.3960 N.pl3     1 HJK        -0.2417
     15 C1          1.4890   -5.1270  -28.1620 C.ar      1 HJK         0.1661
     16 C2          0.0720   -5.8570  -26.4550 C.ar      1 HJK         0.0783
     17 O1         -2.3250   -9.0030  -20.2980 O.co2     1 HJK        -0.5664
     18 O2         -3.5000   -9.1130  -22.1220 O.co2     1 HJK        -0.5664
     19 N4         -0.1950   -2.3410  -26.7210 N.2       1 HJK        -0.2856
     20 N5          1.2160   -3.8060  -28.0290 N.ar      1 HJK        -0.2694
     21 H1         -0.3796   -8.3459  -27.4802 H         1 HJK         0.0593
     22 H2         -1.2313  -10.3231  -26.2505 H         1 HJK         0.0608
     23 H3         -1.5108  -10.1959  -23.8052 H         1 HJK         0.0583
     24 H4         -1.6971   -6.9020  -22.0090 H         1 HJK         0.0588
     25 H5         -0.4400   -8.1486  -21.7049 H         1 HJK         0.0588
     26 H6         -0.5195   -6.0782  -23.8604 H         1 HJK         0.0587
     27 H7         -1.6922   -1.8233  -25.2546 H         1 HJK         0.1410
     28 H8          2.5681   -6.5103  -29.2404 H         1 HJK         0.1795
     29 H9          2.7793   -4.8094  -29.7353 H         1 HJK         0.1795
     30 H10        -1.7534   -4.2939  -24.6603 H         1 HJK         0.2375
@<TRIPOS>BOND
     1    1    2 ar 
     2   13    1 ar 
     3    2    3 ar 
     4    5    3 ar 
     5    4   10 ar 
     6    4   14 1  
     7   16    4 ar 
     8    5    6 1  
     9    8    5 ar 
    10    6    7 1  
    11    7   17 ar 
    12    7   18 ar 
    13   13    8 ar 
    14   14    9 1  
    15    9   19 2  
    16   10   19 1  
    17   10   20 ar 
    18   15   11 1  
    19   12   15 ar 
    20   16   12 ar 
    21   13   16 1  
    22   15   20 ar 
    23    1   21 1  
    24    2   22 1  
    25    3   23 1  
    26    6   24 1  
    27    6   25 1  
    28    8   26 1  
    29    9   27 1  
    30   11   28 1  
    31   11   29 1  
    32   14   30 1  
@<TRIPOS>SUBSTRUCTURE
     1 HJK         1

