### 
### Created by X-TOOL on Mon Aug  2 16:11:28 2021
### 

@<TRIPOS>MOLECULE
6q54_ligand
   26    26     1     0     0
SMALL
GAST_HUCK


@<TRIPOS>ATOM
      1 N1         -7.8840   26.8190  -23.6670 N.2       1 HJ8        -0.2117
      2 N3         -9.0910   27.8430  -22.1820 N.pl3     1 HJ8        -0.1815
      3 C4         -8.0710   27.2570  -21.4550 C.2       1 HJ8         0.1192
      4 C5         -7.3730   26.5910  -22.4560 C.2       1 HJ8         0.1632
      5 C6        -10.1920   28.6370  -21.6270 C.3       1 HJ8         0.0703
      6 C7        -10.8940   29.5660  -22.6100 C.3       1 HJ8        -0.0353
      7 O1         -6.7850   25.9000  -17.5140 O.co2     1 HJ8        -0.5641
      8 C1         -7.9900   25.9360  -17.7630 C.2       1 HJ8         0.0865
      9 C2         -8.4760   26.0580  -19.2170 C.3       1 HJ8         0.0388
     10 C3         -7.9100   27.3090  -19.9400 C.3       1 HJ8         0.0606
     11 N2         -8.9920   27.6130  -23.5120 N.2       1 HJ8        -0.1182
     12 N4         -9.9660   26.0670  -19.3200 N.4       1 HJ8         0.2341
     13 O2         -8.9990   25.8190  -16.8820 O.co2     1 HJ8        -0.5641
     14 O3         -6.2660   25.8650  -22.2740 O.3       1 HJ8        -0.3468
     15 H1         -9.7873   29.2522  -20.8099 H         1 HJ8         0.0636
     16 H2        -10.9424   27.9405  -21.2247 H         1 HJ8         0.0636
     17 H3        -11.6974   30.1094  -22.0911 H         1 HJ8         0.0258
     18 H4        -11.3232   28.9738  -23.4316 H         1 HJ8         0.0258
     19 H5        -10.1682   30.2855  -23.0168 H         1 HJ8         0.0258
     20 H6         -8.1094   25.1701  -19.7530 H         1 HJ8         0.1047
     21 H7         -8.4376   28.1978  -19.5635 H         1 HJ8         0.0507
     22 H8         -6.8384   27.3920  -19.7058 H         1 HJ8         0.0507
     23 H9        -10.3400   25.2564  -18.8520 H         1 HJ8         0.2012
     24 H10       -10.2358   26.0486  -20.2910 H         1 HJ8         0.2012
     25 H11       -10.3278   26.9020  -18.8864 H         1 HJ8         0.2012
     26 H12        -6.4045   24.9882  -22.6124 H         1 HJ8         0.2350
@<TRIPOS>BOND
     1    4    1 1  
     2    1   11 2  
     3    3    2 1  
     4    2    5 1  
     5    2   11 1  
     6    3    4 2  
     7   10    3 1  
     8    4   14 1  
     9    5    6 1  
    10    8    7 ar 
    11    9    8 1  
    12    8   13 ar 
    13    9   10 1  
    14    9   12 1  
    15    5   15 1  
    16    5   16 1  
    17    6   17 1  
    18    6   18 1  
    19    6   19 1  
    20    9   20 1  
    21   10   21 1  
    22   10   22 1  
    23   12   23 1  
    24   12   24 1  
    25   12   25 1  
    26   14   26 1  
@<TRIPOS>SUBSTRUCTURE
     1 HJ8         1

