### 
### Created by X-TOOL on Mon Aug  2 16:10:20 2021
### 

@<TRIPOS>MOLECULE
6q5b_ligand
   30    30     1     0     0
SMALL
GAST_HUCK


@<TRIPOS>ATOM
      1 OAC         3.8450   24.5080   -1.4540 O.2       1 NXL        -0.3828
      2 CAN         3.7010   24.7680   -2.6140 C.2       1 NXL         0.1743
      3 N           4.3460   25.8970   -3.1810 N.am      1 NXL        -0.2479
      4 CAJ         4.2540   26.2040   -4.6520 C.3       1 NXL         0.0807
      5 CA          5.2390   26.7620   -2.3960 C.3       1 NXL         0.1340
      6 C           4.5950   28.1550   -2.2510 C.2       1 NXL         0.1996
      7 O           3.5670   28.3900   -1.6420 O.2       1 NXL        -0.3947
      8 NAA         5.2920   29.3060   -2.8040 N.am      1 NXL        -0.2989
      9 CB          6.5950   26.8510   -3.0490 C.3       1 NXL        -0.0069
     10 CAH         6.5440   27.0410   -4.5520 C.3       1 NXL        -0.0025
     11 CAO         5.6180   26.1770   -5.3210 C.3       1 NXL         0.0316
     12 NAK         6.3170   24.8480   -5.4350 N.4       1 NXL         0.4138
     13 OAL         5.7820   23.9380   -4.5600 O.3       1 NXL        -0.2010
     14 SAR         6.7610   22.6140   -4.5610 S.o2      1 NXL        -0.0327
     15 OAD         8.0670   22.7000   -5.3440 O.co2     1 NXL        -0.4578
     16 OAE         6.0050   21.5600   -5.1000 O.co2     1 NXL        -0.4578
     17 OAG         7.1960   22.3200   -3.2500 O.co2     1 NXL        -0.4578
     18 H1          3.0715   24.1343   -3.2370 H         1 NXL         0.1547
     19 H2          3.8145   27.2042   -4.7801 H         1 NXL         0.0583
     20 H3          3.6072   25.4550   -5.1322 H         1 NXL         0.0583
     21 H4          5.3644   26.3263   -1.3938 H         1 NXL         0.0804
     22 H5          4.8929   30.2192   -2.7216 H         1 NXL         0.1815
     23 H6          6.1702   29.1840   -3.2665 H         1 NXL         0.1815
     24 H7          7.1431   25.9213   -2.8363 H         1 NXL         0.0314
     25 H8          7.1348   27.7034   -2.6107 H         1 NXL         0.0314
     26 H9          7.5578   26.8649   -4.9407 H         1 NXL         0.0323
     27 H10         6.2546   28.0850   -4.7423 H         1 NXL         0.0323
     28 H11         5.4909   26.5801   -6.3365 H         1 NXL         0.0882
     29 H12         7.2955   24.9706   -5.2265 H         1 NXL         0.2382
     30 H13         6.2149   24.5008   -6.3758 H         1 NXL         0.2382
@<TRIPOS>BOND
     1    1    2 2  
     2    2    3 am 
     3    3    4 1  
     4    3    5 1  
     5    4   11 1  
     6    5    6 1  
     7    5    9 1  
     8    6    7 2  
     9    6    8 am 
    10    9   10 1  
    11   10   11 1  
    12   11   12 1  
    13   12   13 1  
    14   13   14 1  
    15   14   15 ar 
    16   14   16 ar 
    17   14   17 ar 
    18    2   18 1  
    19    4   19 1  
    20    4   20 1  
    21    5   21 1  
    22    8   22 1  
    23    8   23 1  
    24    9   24 1  
    25    9   25 1  
    26   10   26 1  
    27   10   27 1  
    28   11   28 1  
    29   12   29 1  
    30   12   30 1  
@<TRIPOS>SUBSTRUCTURE
     1 NXL         1

