### 
### Created by X-TOOL on Mon Aug  2 16:16:16 2021
### 

@<TRIPOS>MOLECULE
6q60_ligand
   23    23     1     0     0
SMALL
GAST_HUCK


@<TRIPOS>ATOM
      1 N1         41.5730   34.6110  -23.4070 N.am      1 HJH        -0.1736
      2 N3         40.3790   33.4500  -24.9620 N.2       1 HJH        -0.1815
      3 C4         42.0370   34.8480  -24.6210 C.2       1 HJH         0.2399
      4 C5         39.7800   33.1650  -22.6230 C.3       1 HJH         0.0538
      5 C6         41.2840   35.4450  -29.3180 C.2       1 HJH         0.0866
      6 C1         40.7770   35.2960  -27.8570 C.3       1 HJH         0.0389
      7 C2         41.4710   34.1260  -27.1240 C.3       1 HJH         0.0580
      8 C3         41.3120   34.1350  -25.5980 C.2       1 HJH         0.1262
      9 N2         40.5780   33.7710  -23.6710 N.pl3     1 HJH        -0.1540
     10 N4         39.2980   35.1670  -27.8010 N.4       1 HJH         0.2342
     11 O1         42.4630   35.4920  -29.5990 O.co2     1 HJH        -0.5641
     12 O2         40.3360   35.5620  -30.2440 O.co2     1 HJH        -0.5641
     13 O3         43.0870   35.6620  -24.8430 O.2       1 HJH        -0.3825
     14 H1         41.8862   34.9676  -22.5268 H         1 HJH         0.2165
     15 H2         39.0198   32.5099  -23.0734 H         1 HJH         0.0517
     16 H3         39.2842   33.9532  -22.0374 H         1 HJH         0.0517
     17 H4         40.4305   32.5721  -21.9632 H         1 HJH         0.0517
     18 H5         41.0451   36.2201  -27.3239 H         1 HJH         0.1049
     19 H6         42.5455   34.1667  -27.3559 H         1 HJH         0.0511
     20 H7         41.0488   33.1848  -27.5060 H         1 HJH         0.0511
     21 H8         38.8745   35.9424  -28.2862 H         1 HJH         0.2012
     22 H9         38.9968   35.1677  -26.8391 H         1 HJH         0.2012
     23 H10        39.0192   34.3034  -28.2398 H         1 HJH         0.2012
@<TRIPOS>BOND
     1    3    1 am 
     2    1    9 1  
     3    8    2 2  
     4    2    9 1  
     5    8    3 1  
     6    3   13 2  
     7    9    4 1  
     8    6    5 1  
     9    5   11 ar 
    10    5   12 ar 
    11    7    6 1  
    12    6   10 1  
    13    7    8 1  
    14    1   14 1  
    15    4   15 1  
    16    4   16 1  
    17    4   17 1  
    18    6   18 1  
    19    7   19 1  
    20    7   20 1  
    21   10   21 1  
    22   10   22 1  
    23   10   23 1  
@<TRIPOS>SUBSTRUCTURE
     1 HJH         1

