### 
### Created by X-TOOL on Mon Aug  2 16:16:17 2021
### 

@<TRIPOS>MOLECULE
6q6f_ligand
   53    55     1     0     0
SMALL
GAST_HUCK


@<TRIPOS>ATOM
      1 C01        59.4780   19.1570  -12.4130 C.3       1 HJQ        -0.0295
      2 C03        60.3370   17.9580  -12.7720 C.3       1 HJQ         0.0044
      3 C05        59.4010   16.7160  -12.7400 C.3       1 HJQ         0.0357
      4 C07        57.9920   17.2580  -12.4050 C.3       1 HJQ        -0.0198
      5 C08        57.4240   19.2260  -13.8060 C.3       1 HJQ        -0.0263
      6 C09        56.1780   20.1380  -13.5160 C.3       1 HJQ         0.0355
      7 C10        54.7970   19.3040  -13.5750 C.3       1 HJQ         0.0249
      8 C11        54.9510   17.8710  -14.1450 C.3       1 HJQ         0.0123
      9 C12        53.8870   15.8290  -14.5780 C.3       1 HJQ        -0.0427
     10 C13        52.5620   17.8910  -14.9150 C.3       1 HJQ         0.0092
     11 C14        52.3490   19.2850  -14.3000 C.3       1 HJQ         0.0094
     12 C15        53.9470   20.7400  -15.4460 C.3       1 HJQ        -0.0424
     13 C16        59.4560   15.7820  -13.9610 C.ar      1 HJQ        -0.0385
     14 C17        60.6710   15.2240  -14.3460 C.ar      1 HJQ        -0.0615
     15 C18        60.7790   14.3770  -15.4310 C.ar      1 HJQ        -0.0349
     16 C19        59.6390   14.0560  -16.1640 C.ar      1 HJQ         0.1248
     17 C20        58.3810   14.5950  -15.8090 C.ar      1 HJQ        -0.0349
     18 C21        58.2930   15.4550  -14.7100 C.ar      1 HJQ        -0.0615
     19 F22        59.7580   13.2370  -17.2130 F         1 HJQ        -0.1893
     20 N02        58.0530   18.7510  -12.5290 N.4       1 HJQ         0.2371
     21 N04        53.6340   17.1700  -14.1250 N.4       1 HJQ         0.2408
     22 N06        53.6210   20.0950  -14.2200 N.4       1 HJQ         0.2428
     23 H1         59.6873   19.9868  -13.1041 H         1 HJQ         0.0816
     24 H2         59.6929   19.4752  -11.3822 H         1 HJQ         0.0816
     25 H3         61.1494   17.8401  -12.0398 H         1 HJQ         0.0343
     26 H4         60.7650   18.0850  -13.7773 H         1 HJQ         0.0343
     27 H5         59.7224   16.0967  -11.8896 H         1 HJQ         0.0508
     28 H6         57.7132   16.9757  -11.3791 H         1 HJQ         0.0840
     29 H7         57.2533   16.8507  -13.1110 H         1 HJQ         0.0840
     30 H8         58.1654   19.8018  -14.3794 H         1 HJQ         0.0816
     31 H9         57.1022   18.3540  -14.3943 H         1 HJQ         0.0816
     32 H10        56.1416   20.9404  -14.2675 H         1 HJQ         0.0374
     33 H11        56.2850   20.5788  -12.5139 H         1 HJQ         0.0374
     34 H12        54.5054   19.1630  -12.5238 H         1 HJQ         0.0906
     35 H13        55.6715   17.3103  -13.5314 H         1 HJQ         0.0871
     36 H14        55.3175   17.9282  -15.1805 H         1 HJQ         0.0871
     37 H15        52.9454   15.2603  -14.5842 H         1 HJQ         0.0778
     38 H16        54.6046   15.3425  -13.9010 H         1 HJQ         0.0778
     39 H17        54.3044   15.8582  -15.5953 H         1 HJQ         0.0778
     40 H18        52.8805   17.9935  -15.9629 H         1 HJQ         0.0868
     41 H19        51.6230   17.3198  -14.8713 H         1 HJQ         0.0868
     42 H20        51.9472   19.1620  -13.2834 H         1 HJQ         0.0868
     43 H21        51.6225   19.8334  -14.9176 H         1 HJQ         0.0868
     44 H22        54.8791   21.3111  -15.3233 H         1 HJQ         0.0778
     45 H23        53.1328   21.4235  -15.7286 H         1 HJQ         0.0778
     46 H24        54.0812   19.9840  -16.2337 H         1 HJQ         0.0778
     47 H25        61.5616   15.4619  -13.7757 H         1 HJQ         0.0547
     48 H26        61.7423   13.9655  -15.7099 H         1 HJQ         0.0587
     49 H27        57.4955   14.3446  -16.3819 H         1 HJQ         0.0587
     50 H28        57.3339   15.8741  -14.4280 H         1 HJQ         0.0547
     51 H29        57.5404   19.1598  -11.7634 H         1 HJQ         0.2035
     52 H30        53.3130   17.1249  -13.1705 H         1 HJQ         0.2035
     53 H31        53.4221   20.8435  -13.5748 H         1 HJQ         0.2038
@<TRIPOS>BOND
     1    1    2 1  
     2   20    1 1  
     3    3    2 1  
     4    4    3 1  
     5    3   13 1  
     6   20    4 1  
     7    6    5 1  
     8    5   20 1  
     9    7    6 1  
    10    8    7 1  
    11    7   22 1  
    12   21    8 1  
    13   21    9 1  
    14   10   11 1  
    15   10   21 1  
    16   11   22 1  
    17   22   12 1  
    18   13   14 ar 
    19   13   18 ar 
    20   14   15 ar 
    21   15   16 ar 
    22   16   17 ar 
    23   16   19 1  
    24   17   18 ar 
    25    1   23 1  
    26    1   24 1  
    27    2   25 1  
    28    2   26 1  
    29    3   27 1  
    30    4   28 1  
    31    4   29 1  
    32    5   30 1  
    33    5   31 1  
    34    6   32 1  
    35    6   33 1  
    36    7   34 1  
    37    8   35 1  
    38    8   36 1  
    39    9   37 1  
    40    9   38 1  
    41    9   39 1  
    42   10   40 1  
    43   10   41 1  
    44   11   42 1  
    45   11   43 1  
    46   12   44 1  
    47   12   45 1  
    48   12   46 1  
    49   14   47 1  
    50   15   48 1  
    51   17   49 1  
    52   18   50 1  
    53   20   51 1  
    54   21   52 1  
    55   22   53 1  
@<TRIPOS>SUBSTRUCTURE
     1 HJQ         1

