### 
### Created by X-TOOL on Mon Aug  2 16:16:17 2021
### 

@<TRIPOS>MOLECULE
6q6m_ligand
   41    42     1     0     0
SMALL
GAST_HUCK


@<TRIPOS>ATOM
      1 C2          3.6170  -33.1620   -7.4480 C.ar      1 HJW         0.0536
      2 C3          3.7860  -33.5030   -8.8110 C.ar      1 HJW         0.0877
      3 C11         4.5030  -32.8170  -11.2220 C.3       1 HJW        -0.0350
      4 C16         2.2100  -35.3720   -9.6850 C.3       1 HJW         0.1612
      5 C18         1.2980  -34.1830  -10.0510 C.3       1 HJW        -0.0179
      6 C22         2.3550  -36.3160  -10.8710 C.2       1 HJW         0.2649
      7 C25         1.5280  -38.4060  -11.8390 C.3       1 HJW         0.0741
      8 C28         2.1300  -39.6780  -11.1790 C.3       1 HJW        -0.0371
      9 CL1         3.0730  -34.4120   -6.3270 Cl        1 HJW        -0.0853
     10 C4          4.2720  -32.5050   -9.7300 C.ar      1 HJW        -0.0231
     11 C5          4.5210  -31.1870   -9.2700 C.ar      1 HJW        -0.0734
     12 C7          4.3140  -30.8570   -7.9080 C.ar      1 HJW        -0.0834
     13 C9          3.8670  -31.8490   -7.0000 C.ar      1 HJW        -0.0685
     14 N15         3.5580  -34.8890   -9.1850 N.am      1 HJW        -0.1998
     15 O23         3.1730  -36.1020  -11.7550 O.2       1 HJW        -0.3673
     16 O24         1.5030  -37.3720  -10.8290 O.3       1 HJW        -0.2750
     17 C32         4.5930  -35.7860   -9.0540 C.2       1 HJW         0.2381
     18 O33         4.4210  -36.9550   -9.3530 O.2       1 HJW        -0.3802
     19 C34         5.9870  -35.5880   -8.5450 C.2       1 HJW         0.1058
     20 S35         6.6890  -34.0260   -8.3150 S.3       1 HJW        -0.0254
     21 C36         8.1550  -34.7200   -7.7090 C.2       1 HJW         0.0010
     22 C38         8.1000  -36.0520   -7.6880 C.2       1 HJW        -0.0665
     23 C40         6.8260  -36.5720   -8.1710 C.2       1 HJW        -0.0546
     24 H1          4.8731  -31.9154  -11.7321 H         1 HJW         0.0362
     25 H2          3.5553  -33.1350  -11.6811 H         1 HJW         0.0362
     26 H3          5.2454  -33.6231  -11.3174 H         1 HJW         0.0362
     27 H4          1.7295  -35.9294   -8.8674 H         1 HJW         0.0878
     28 H5          0.3292  -34.5609  -10.4098 H         1 HJW         0.0283
     29 H6          1.7743  -33.5855  -10.8423 H         1 HJW         0.0283
     30 H7          1.1400  -33.5548   -9.1620 H         1 HJW         0.0283
     31 H8          0.5070  -38.6121  -12.1928 H         1 HJW         0.0610
     32 H9          2.1531  -38.0895  -12.6870 H         1 HJW         0.0610
     33 H10         2.1666  -40.4921  -11.9179 H         1 HJW         0.0255
     34 H11         1.5017  -39.9824  -10.3289 H         1 HJW         0.0255
     35 H12         3.1477  -39.4598  -10.8232 H         1 HJW         0.0255
     36 H13         4.8707  -30.4299   -9.9625 H         1 HJW         0.0515
     37 H14         4.4973  -29.8467   -7.5607 H         1 HJW         0.0471
     38 H15         3.7167  -31.5970   -5.9565 H         1 HJW         0.0526
     39 H16         9.0171  -34.1392   -7.3845 H         1 HJW         0.0801
     40 H17         8.9187  -36.6839   -7.3468 H         1 HJW         0.0437
     41 H18         6.5820  -37.6320   -8.2230 H         1 HJW         0.0515
@<TRIPOS>BOND
     1    2    1 ar 
     2    1    9 1  
     3    1   13 ar 
     4    2   10 ar 
     5   14    2 1  
     6   10    3 1  
     7    4    5 1  
     8    6    4 1  
     9    4   14 1  
    10    6   15 2  
    11   16    6 1  
    12    7    8 1  
    13    7   16 1  
    14   10   11 ar 
    15   11   12 ar 
    16   12   13 ar 
    17   14   17 am 
    18   17   18 2  
    19   17   19 1  
    20   19   20 1  
    21   19   23 2  
    22   20   21 1  
    23   21   22 2  
    24   22   23 1  
    25    3   24 1  
    26    3   25 1  
    27    3   26 1  
    28    4   27 1  
    29    5   28 1  
    30    5   29 1  
    31    5   30 1  
    32    7   31 1  
    33    7   32 1  
    34    8   33 1  
    35    8   34 1  
    36    8   35 1  
    37   11   36 1  
    38   12   37 1  
    39   13   38 1  
    40   21   39 1  
    41   22   40 1  
    42   23   41 1  
@<TRIPOS>SUBSTRUCTURE
     1 HJW         1

