### 
### Created by X-TOOL on Mon Aug  2 16:11:28 2021
### 

@<TRIPOS>MOLECULE
6q6o_ligand
   41    42     1     0     0
SMALL
GAST_HUCK


@<TRIPOS>ATOM
      1 C2          5.0860  -32.8230   -9.7560 C.ar      1 HKE         0.0604
      2 C3          4.6210  -33.7480   -8.7990 C.ar      1 HKE         0.0997
      3 C13         3.1320  -35.6530   -9.5820 C.3       1 HKE         0.1627
      4 C15         2.1000  -34.5200   -9.8310 C.3       1 HKE        -0.0176
      5 C19         3.2480  -36.5240  -10.8160 C.2       1 HKE         0.2654
      6 C22         2.6110  -38.6210  -11.7960 C.3       1 HKE         0.0821
      7 C24         1.4410  -38.5170  -12.8190 C.3       1 HKE        -0.0345
      8 C28         2.5700  -39.9980  -11.0870 C.3       1 HKE        -0.0345
      9 CL1         5.4200  -33.3460  -11.3930 Cl        1 HKE        -0.0830
     10 C4          4.3530  -33.3320   -7.4840 C.ar      1 HKE         0.0604
     11 C5          4.5310  -31.9920   -7.1270 C.ar      1 HKE        -0.0613
     12 C7          4.9920  -31.0660   -8.0820 C.ar      1 HKE        -0.0760
     13 C9          5.2740  -31.4770   -9.4000 C.ar      1 HKE        -0.0613
     14 CL2         3.7840  -34.5230   -6.3320 Cl        1 HKE        -0.0830
     15 N12         4.4450  -35.1220   -9.1300 N.am      1 HKE        -0.1944
     16 O20         3.9740  -36.1970  -11.7470 O.2       1 HKE        -0.3672
     17 O21         2.4990  -37.6380  -10.7390 O.3       1 HKE        -0.2720
     18 C32         5.5070  -35.9750   -8.9960 C.2       1 HKE         0.2614
     19 O33         5.3480  -37.1510   -9.2750 O.2       1 HKE        -0.3778
     20 C34         6.8910  -35.6850   -8.5300 C.2       1 HKE         0.1909
     21 O35         7.7720  -36.6970   -8.4960 O.3       1 HKE        -0.2500
     22 C36         8.8770  -36.1060   -8.0210 C.2       1 HKE         0.0866
     23 C38         8.7610  -34.8060   -7.7540 C.2       1 HKE        -0.0557
     24 C40         7.3690  -34.5150   -8.1030 C.2       1 HKE        -0.0431
     25 H1          2.7429  -36.2835   -8.7690 H         1 HKE         0.0881
     26 H2          1.1472  -34.9583  -10.1626 H         1 HKE         0.0283
     27 H3          2.4813  -33.8409  -10.6079 H         1 HKE         0.0283
     28 H4          1.9403  -33.9581   -8.8989 H         1 HKE         0.0283
     29 H5          3.5654  -38.4923  -12.3276 H         1 HKE         0.0644
     30 H6          1.5683  -39.2806  -13.6005 H         1 HKE         0.0258
     31 H7          1.4437  -37.5177  -13.2788 H         1 HKE         0.0258
     32 H8          0.4847  -38.6793  -12.3002 H         1 HKE         0.0258
     33 H9          3.3986  -40.0642  -10.3665 H         1 HKE         0.0258
     34 H10         2.6695  -40.7986  -11.8348 H         1 HKE         0.0258
     35 H11         1.6129  -40.1088  -10.5563 H         1 HKE         0.0258
     36 H12         4.3143  -31.6664   -6.1160 H         1 HKE         0.0585
     37 H13         5.1312  -30.0283   -7.8011 H         1 HKE         0.0489
     38 H14         5.6323  -30.7620  -10.1317 H         1 HKE         0.0585
     39 H15         9.8065  -36.6513   -7.8640 H         1 HKE         0.1039
     40 H16         9.5183  -34.1245   -7.3692 H         1 HKE         0.0364
     41 H17         6.8449  -33.5632   -8.0307 H         1 HKE         0.0434
@<TRIPOS>BOND
     1    2    1 ar 
     2    1    9 1  
     3    1   13 ar 
     4    2   10 ar 
     5   15    2 1  
     6    3    4 1  
     7    5    3 1  
     8    3   15 1  
     9    5   16 2  
    10   17    5 1  
    11    6    7 1  
    12    6    8 1  
    13    6   17 1  
    14   10   11 ar 
    15   10   14 1  
    16   11   12 ar 
    17   12   13 ar 
    18   15   18 am 
    19   18   19 2  
    20   18   20 1  
    21   20   21 1  
    22   20   24 2  
    23   21   22 1  
    24   22   23 2  
    25   23   24 1  
    26    3   25 1  
    27    4   26 1  
    28    4   27 1  
    29    4   28 1  
    30    6   29 1  
    31    7   30 1  
    32    7   31 1  
    33    7   32 1  
    34    8   33 1  
    35    8   34 1  
    36    8   35 1  
    37   11   36 1  
    38   12   37 1  
    39   13   38 1  
    40   22   39 1  
    41   23   40 1  
    42   24   41 1  
@<TRIPOS>SUBSTRUCTURE
     1 HKE         1

