### 
### Created by X-TOOL on Wed Jan  1 15:39:35 2020
### 

@<TRIPOS>MOLECULE
6q6y_ligand
   36    38     1     0     0
SMALL
GAST_HUCK


@<TRIPOS>ATOM
      1 N1        -10.3720  -30.9090   21.3860 N.am      1 HKQ        -0.1802
      2 C4        -10.2440  -30.3610   22.6910 C.ar      1 HKQ         0.1069
      3 C5         -9.0730  -33.2800   21.7920 C.ar      1 HKQ         0.1143
      4 C6        -10.1400  -34.0660   22.2110 C.ar      1 HKQ        -0.0345
      5 C7         -9.8900  -35.1690   23.0150 C.ar      1 HKQ        -0.0599
      6 C8         -8.5980  -35.4690   23.4160 C.ar      1 HKQ        -0.0616
      7 C10        -7.7740  -33.5640   22.2000 C.ar      1 HKQ        -0.0345
      8 C13        -5.3970  -30.5360   25.7730 C.ar      1 HKQ        -0.0607
      9 C15        -6.0300  -28.4630   26.7700 C.ar      1 HKQ        -0.0607
     10 O1         -8.1210  -31.2820   20.4300 O.2       1 HKQ        -0.1444
     11 S          -9.3630  -31.9620   20.6540 S.o2      1 HKQ         0.0904
     12 O         -10.0890  -32.4910   19.5420 O.2       1 HKQ        -0.1444
     13 C9         -7.5470  -34.6620   23.0170 C.ar      1 HKQ        -0.0599
     14 C         -11.3370  -29.8820   23.4230 C.ar      1 HKQ         0.1338
     15 CL        -12.9340  -30.0990   22.7850 Cl        1 HKQ        -0.0530
     16 C3         -8.9950  -30.2310   23.2990 C.ar      1 HKQ        -0.0213
     17 C2         -8.8740  -29.6370   24.5570 C.ar      1 HKQ        -0.0105
     18 C1        -10.0460  -29.1690   25.1480 C.ar      1 HKQ        -0.0024
     19 N         -11.2590  -29.2970   24.6020 N.ar      1 HKQ        -0.3005
     20 C11        -7.5550  -29.5700   25.2550 C.ar      1 HKQ        -0.0170
     21 C16        -7.2380  -28.5000   26.0950 C.ar      1 HKQ        -0.0534
     22 C14        -5.1090  -29.4760   26.6080 C.ar      1 HKQ        -0.0613
     23 C12        -6.6120  -30.5900   25.1050 C.ar      1 HKQ        -0.0534
     24 H1        -11.1691  -30.6168   20.8575 H         1 HKQ         0.2183
     25 H2        -11.1532  -33.8208   21.9139 H         1 HKQ         0.0637
     26 H3        -10.7118  -35.8009   23.3318 H         1 HKQ         0.0618
     27 H4         -8.4108  -36.3345   24.0413 H         1 HKQ         0.0618
     28 H5         -6.9495  -32.9354   21.8836 H         1 HKQ         0.0637
     29 H6         -4.6712  -31.3298   25.6383 H         1 HKQ         0.0619
     30 H7         -5.8069  -27.6325   27.4299 H         1 HKQ         0.0619
     31 H8         -6.5392  -34.8894   23.3452 H         1 HKQ         0.0618
     32 H9         -8.1098  -30.5947   22.7898 H         1 HKQ         0.0584
     33 H10        -9.9692  -28.6714   26.1080 H         1 HKQ         0.0671
     34 H11        -7.9463  -27.6890   26.2198 H         1 HKQ         0.0628
     35 H12        -4.1622  -29.4399   27.1346 H         1 HKQ         0.0621
     36 H13        -6.8320  -31.4328   24.4597 H         1 HKQ         0.0628
@<TRIPOS>BOND
     1    2    1 1  
     2    1   11 am 
     3    2   14 ar 
     4   16    2 ar 
     5    3    4 ar 
     6    3    7 ar 
     7   11    3 1  
     8    4    5 ar 
     9    5    6 ar 
    10   13    6 ar 
    11    7   13 ar 
    12   22    8 ar 
    13    8   23 ar 
    14   21    9 ar 
    15    9   22 ar 
    16   11   10 2  
    17   11   12 2  
    18   14   15 1  
    19   19   14 ar 
    20   17   16 ar 
    21   17   18 ar 
    22   20   17 1  
    23   18   19 ar 
    24   20   21 ar 
    25   20   23 ar 
    26    1   24 1  
    27    4   25 1  
    28    5   26 1  
    29    6   27 1  
    30    7   28 1  
    31    8   29 1  
    32    9   30 1  
    33   13   31 1  
    34   16   32 1  
    35   18   33 1  
    36   21   34 1  
    37   22   35 1  
    38   23   36 1  
@<TRIPOS>SUBSTRUCTURE
     1 HKQ         1

