### 
### Created by X-TOOL on Wed Jan  1 15:39:35 2020
### 

@<TRIPOS>MOLECULE
6q73_ligand
   31    32     1     0     0
SMALL
GAST_HUCK


@<TRIPOS>ATOM
      1 N1        -11.3700  -29.2380   24.5630 N.ar      1 HKK        -0.3051
      2 C4        -10.1770  -29.0770   25.1400 C.ar      1 HKK        -0.0083
      3 C5        -11.4150  -29.9470   23.4550 C.ar      1 HKK         0.1295
      4 C6         -7.6920  -29.4090   25.3390 C.2       1 HKK        -0.0449
      5 C7         -6.6000  -30.2320   25.1810 C.2       1 HKK        -0.0545
      6 C8         -5.3460  -29.9710   25.9450 C.3       1 HKK         0.0722
      7 C10        -7.6170  -28.2030   26.2700 C.3       1 HKK        -0.0042
      8 CL        -13.0030  -30.2220   22.8070 Cl        1 HKK        -0.0565
      9 C1        -10.3100  -30.5270   22.8200 C.ar      1 HKK         0.1016
     10 N         -10.4570  -31.2590   21.6050 N.am      1 HKK        -0.1861
     11 S          -9.3120  -31.9510   20.6810 S.o2      1 HKK         0.0581
     12 O          -8.2060  -31.0470   20.5850 O.2       1 HKK        -0.1500
     13 O1         -9.9670  -32.3610   19.4810 O.2       1 HKK        -0.1500
     14 C          -8.7830  -33.3850   21.5380 C.3       1 HKK         0.0790
     15 C3         -9.0010  -29.6210   24.6380 C.ar      1 HKK        -0.0254
     16 C2         -9.0740  -30.3520   23.4520 C.ar      1 HKK        -0.0282
     17 C9         -6.4450  -28.2830   27.1790 C.3       1 HKK         0.0571
     18 O2         -5.2690  -28.6350   26.4340 O.3       1 HKK        -0.3664
     19 H1        -10.1227  -28.4899   26.0497 H         1 HKK         0.0638
     20 H2         -6.6519  -31.0767   24.4957 H         1 HKK         0.0588
     21 H3         -4.4863  -30.1539   25.2837 H         1 HKK         0.0722
     22 H4         -5.3044  -30.6618   26.8000 H         1 HKK         0.0722
     23 H5         -8.5349  -28.1617   26.8747 H         1 HKK         0.0406
     24 H6         -7.5360  -27.2889   25.6635 H         1 HKK         0.0406
     25 H7        -11.3955  -31.3610   21.2752 H         1 HKK         0.2176
     26 H8         -8.0032  -33.8949   20.9532 H         1 HKK         0.0488
     27 H9         -9.6372  -34.0633   21.6800 H         1 HKK         0.0488
     28 H10        -8.3764  -33.0970   22.5187 H         1 HKK         0.0488
     29 H11        -8.1770  -30.7826   23.0219 H         1 HKK         0.0541
     30 H12        -6.6316  -29.0474   27.9477 H         1 HKK         0.0580
     31 H13        -6.2914  -27.3069   27.6622 H         1 HKK         0.0580
@<TRIPOS>BOND
     1    2    1 ar 
     2    1    3 ar 
     3   15    2 ar 
     4    3    8 1  
     5    3    9 ar 
     6    4    5 2  
     7    4    7 1  
     8    4   15 1  
     9    5    6 1  
    10    6   18 1  
    11    7   17 1  
    12    9   10 1  
    13    9   16 ar 
    14   10   11 am 
    15   11   12 2  
    16   11   13 2  
    17   11   14 1  
    18   15   16 ar 
    19   17   18 1  
    20    2   19 1  
    21    5   20 1  
    22    6   21 1  
    23    6   22 1  
    24    7   23 1  
    25    7   24 1  
    26   10   25 1  
    27   14   26 1  
    28   14   27 1  
    29   14   28 1  
    30   16   29 1  
    31   17   30 1  
    32   17   31 1  
@<TRIPOS>SUBSTRUCTURE
     1 HKK         1

