### 
### Created by X-TOOL on Wed Jan  1 15:39:36 2020
### 

@<TRIPOS>MOLECULE
6q74_ligand
   55    58     1     0     0
SMALL
GAST_HUCK


@<TRIPOS>ATOM
      1 N1        -10.4810  -30.7720   20.9600 N.am      1 HKN        -0.1860
      2 N3        -10.6730  -33.8020   21.8630 N.2       1 HKN        -0.3119
      3 C4         -9.1310  -30.2030   22.9390 C.ar      1 HKN        -0.0334
      4 C5        -10.3640  -30.3240   22.3050 C.ar      1 HKN         0.1175
      5 C6         -9.5000  -33.2580   21.4160 C.2       1 HKN         0.1404
      6 C7         -8.4010  -33.9200   21.8640 C.2       1 HKN         0.0572
      7 C8         -8.1030  -35.8820   23.4010 C.3       1 HKN         0.0909
      8 C10        -5.7020  -36.3260   22.7660 C.ar      1 HKN        -0.0577
      9 C13        -4.7980  -34.2710   24.3830 C.ar      1 HKN        -0.0685
     10 C15       -10.2880  -34.8200   22.5950 C.2       1 HKN         0.1144
     11 C17        -7.7440  -29.5110   24.9230 C.2       1 HKN        -0.0508
     12 C20        -6.4800  -28.7110   26.8990 C.3       1 HKN         0.0569
     13 C21        -7.5480  -28.3530   25.9160 C.3       1 HKN        -0.0053
     14 O2         -8.1740  -31.3060   20.2930 O.2       1 HKN        -0.1485
     15 S          -9.4880  -31.8700   20.2960 S.o2      1 HKN         0.0806
     16 O1        -10.0760  -32.2950   19.0670 O.2       1 HKN        -0.1485
     17 C3         -9.0640  -29.6220   24.2020 C.ar      1 HKN        -0.0339
     18 O3         -5.2940  -29.0920   26.1980 O.3       1 HKN        -0.3673
     19 C19        -5.4580  -30.3420   25.5350 C.3       1 HKN         0.0699
     20 C18        -6.7230  -30.4210   24.7440 C.2       1 HKN        -0.0590
     21 C2        -10.2540  -29.1720   24.7660 C.ar      1 HKN        -0.0166
     22 N         -11.4610  -29.2940   24.1900 N.ar      1 HKN        -0.2952
     23 C1        -11.5260  -29.8760   23.0050 C.ar      1 HKN         0.1814
     24 O         -12.7110  -30.1460   22.4140 O.3       1 HKN        -0.3114
     25 C         -13.8740  -29.4920   22.9100 C.3       1 HKN         0.0593
     26 C16       -11.1930  -35.7540   23.3160 C.3       1 HKN         0.0119
     27 N2         -8.9120  -34.9230   22.6320 N.pl3     1 HKN        -0.2372
     28 C9         -6.6310  -35.5400   23.4450 C.ar      1 HKN        -0.0128
     29 C14        -6.1610  -34.4950   24.2400 C.ar      1 HKN        -0.0577
     30 C12        -3.8870  -35.0850   23.7320 C.ar      1 HKN        -0.0687
     31 C11        -4.3390  -36.1020   22.9130 C.ar      1 HKN        -0.0685
     32 H1        -11.2126  -30.3908   20.3948 H         1 HKN         0.2150
     33 H2         -8.2297  -30.5585   22.4529 H         1 HKN         0.0513
     34 H3         -7.3547  -33.7000   21.6572 H         1 HKN         0.0818
     35 H4         -8.2147  -36.8759   22.9431 H         1 HKN         0.0782
     36 H5         -8.4840  -35.9086   24.4326 H         1 HKN         0.0782
     37 H6         -6.0470  -37.1215   22.1155 H         1 HKN         0.0558
     38 H7         -4.4465  -33.4566   25.0061 H         1 HKN         0.0599
     39 H8         -6.8223  -29.5498   27.5228 H         1 HKN         0.0580
     40 H9         -6.2645  -27.8424   27.5386 H         1 HKN         0.0580
     41 H10        -8.4906  -28.1662   26.4514 H         1 HKN         0.0406
     42 H11        -7.2519  -27.4466   25.3676 H         1 HKN         0.0406
     43 H12        -5.4665  -31.1413   26.2907 H         1 HKN         0.0711
     44 H13        -4.6081  -30.4913   24.8529 H         1 HKN         0.0711
     45 H14        -6.8417  -31.2156   24.0089 H         1 HKN         0.0546
     46 H15       -10.2032  -28.6904   25.7358 H         1 HKN         0.0609
     47 H16       -14.7513  -29.8139   22.3296 H         1 HKN         0.0577
     48 H17       -13.7510  -28.4030   22.8150 H         1 HKN         0.0577
     49 H18       -14.0186  -29.7537   23.9686 H         1 HKN         0.0577
     50 H19       -12.2387  -35.4664   23.1321 H         1 HKN         0.0462
     51 H20       -10.9842  -35.7072   24.3950 H         1 HKN         0.0462
     52 H21       -11.0257  -36.7792   22.9542 H         1 HKN         0.0462
     53 H22        -6.8670  -33.8509   24.7516 H         1 HKN         0.0558
     54 H23        -2.8230  -34.9252   23.8642 H         1 HKN         0.0559
     55 H24        -3.6282  -36.7265   22.3840 H         1 HKN         0.0599
@<TRIPOS>BOND
     1    1    4 1  
     2   15    1 am 
     3    2    5 1  
     4   10    2 2  
     5    4    3 ar 
     6    3   17 ar 
     7    4   23 ar 
     8    6    5 2  
     9    5   15 1  
    10   27    6 1  
    11    7   27 1  
    12   28    7 1  
    13   28    8 ar 
    14    8   31 ar 
    15   29    9 ar 
    16    9   30 ar 
    17   10   26 1  
    18   27   10 1  
    19   11   13 1  
    20   17   11 1  
    21   11   20 2  
    22   13   12 1  
    23   12   18 1  
    24   15   14 2  
    25   15   16 2  
    26   17   21 ar 
    27   19   18 1  
    28   20   19 1  
    29   22   21 ar 
    30   23   22 ar 
    31   23   24 1  
    32   24   25 1  
    33   28   29 ar 
    34   30   31 ar 
    35    1   32 1  
    36    3   33 1  
    37    6   34 1  
    38    7   35 1  
    39    7   36 1  
    40    8   37 1  
    41    9   38 1  
    42   12   39 1  
    43   12   40 1  
    44   13   41 1  
    45   13   42 1  
    46   19   43 1  
    47   19   44 1  
    48   20   45 1  
    49   21   46 1  
    50   25   47 1  
    51   25   48 1  
    52   25   49 1  
    53   26   50 1  
    54   26   51 1  
    55   26   52 1  
    56   29   53 1  
    57   30   54 1  
    58   31   55 1  
@<TRIPOS>SUBSTRUCTURE
     1 HKN         1

