### 
### Created by X-TOOL on Mon Aug  2 16:16:17 2021
### 

@<TRIPOS>MOLECULE
6q7a_ligand
   42    45     1     0     0
SMALL
GAST_HUCK


@<TRIPOS>ATOM
      1 C2          5.1580  -32.3790   -9.3190 C.ar      1 HKZ         0.0734
      2 C3          4.7490  -33.3250   -8.3660 C.ar      1 HKZ         0.1218
      3 C41         7.5640  -34.2060   -7.7040 C.2       1 HKZ        -0.0526
      4 C13         5.5740  -35.5160   -8.5750 C.2       1 HKZ         0.1679
      5 C15         3.7630  -36.5840   -9.2500 C.2       1 HKZ         0.0052
      6 C16         3.5010  -35.2640   -9.0640 C.2       1 HKZ         0.0676
      7 C17         2.1910  -34.5390   -9.2660 C.3       1 HKZ        -0.0114
      8 C21         2.9450  -37.7860   -9.6660 C.3       1 HKZ         0.0038
      9 C24         2.7290  -37.8630  -11.1820 C.ar      1 HKZ        -0.0376
     10 C25         1.7470  -38.7410  -11.6760 C.ar      1 HKZ        -0.0594
     11 C27         1.5220  -38.8460  -13.0590 C.ar      1 HKZ        -0.0686
     12 C29         2.2730  -38.0660  -13.9510 C.ar      1 HKZ        -0.0688
     13 CL1         5.4520  -32.8530  -10.9870 Cl        1 HKZ        -0.0748
     14 C4          4.5180  -32.9280   -7.0380 C.ar      1 HKZ         0.0734
     15 C5          4.6750  -31.5880   -6.6670 C.ar      1 HKZ        -0.0525
     16 C7          5.0800  -30.6400   -7.6180 C.ar      1 HKZ        -0.0683
     17 C9          5.3170  -31.0370   -8.9480 C.ar      1 HKZ        -0.0525
     18 CL2         3.9960  -34.1120   -5.8470 Cl        1 HKZ        -0.0748
     19 N12         4.6050  -34.6430   -8.6730 N.pl3     1 HKZ        -0.2064
     20 N14         5.1430  -36.6510   -8.8980 N.2       1 HKZ        -0.3312
     21 C31         3.2490  -37.1910  -13.4610 C.ar      1 HKZ        -0.0686
     22 C33         3.4760  -37.0880  -12.0820 C.ar      1 HKZ        -0.0594
     23 C35         6.9980  -35.3340   -8.1620 C.2       1 HKZ         0.1579
     24 O36         7.8260  -36.3860   -8.2330 O.3       1 HKZ        -0.2592
     25 C37         8.9780  -35.8700   -7.7960 C.2       1 HKZ         0.0807
     26 C39         8.9510  -34.5830   -7.4500 C.2       1 HKZ        -0.0614
     27 H1          7.0961  -33.2338   -7.5561 H         1 HKZ         0.0377
     28 H2          1.4215  -35.2555   -9.5894 H         1 HKZ         0.0389
     29 H3          2.3161  -33.7632  -10.0357 H         1 HKZ         0.0389
     30 H4          1.8815  -34.0706   -8.3201 H         1 HKZ         0.0389
     31 H5          1.9629  -37.7300   -9.1737 H         1 HKZ         0.0515
     32 H6          3.4678  -38.6969   -9.3390 H         1 HKZ         0.0515
     33 H7          1.1616  -39.3389  -10.9869 H         1 HKZ         0.0557
     34 H8          0.7692  -39.5287  -13.4362 H         1 HKZ         0.0599
     35 H9          2.0975  -38.1410  -15.0181 H         1 HKZ         0.0558
     36 H10         4.4836  -31.2826   -5.6447 H         1 HKZ         0.0605
     37 H11         5.2104  -29.6032   -7.3296 H         1 HKZ         0.0553
     38 H12         5.6227  -30.3039   -9.6856 H         1 HKZ         0.0605
     39 H13         3.8315  -36.5908  -14.1506 H         1 HKZ         0.0599
     40 H14         4.2320  -36.4066  -11.7090 H         1 HKZ         0.0557
     41 H15         9.8866  -36.4662   -7.7264 H         1 HKZ         0.0997
     42 H16         9.7637  -33.9650   -7.0711 H         1 HKZ         0.0356
@<TRIPOS>BOND
     1    2    1 ar 
     2    1   13 1  
     3    1   17 ar 
     4    2   14 ar 
     5   19    2 1  
     6   23    3 2  
     7    3   26 1  
     8    4   19 1  
     9   20    4 2  
    10    4   23 1  
    11    5    6 2  
    12    5    8 1  
    13    5   20 1  
    14    6    7 1  
    15    6   19 1  
    16    8    9 1  
    17    9   10 ar 
    18    9   22 ar 
    19   10   11 ar 
    20   11   12 ar 
    21   12   21 ar 
    22   14   15 ar 
    23   14   18 1  
    24   15   16 ar 
    25   16   17 ar 
    26   21   22 ar 
    27   23   24 1  
    28   24   25 1  
    29   25   26 2  
    30    3   27 1  
    31    7   28 1  
    32    7   29 1  
    33    7   30 1  
    34    8   31 1  
    35    8   32 1  
    36   10   33 1  
    37   11   34 1  
    38   12   35 1  
    39   15   36 1  
    40   16   37 1  
    41   17   38 1  
    42   21   39 1  
    43   22   40 1  
    44   25   41 1  
    45   26   42 1  
@<TRIPOS>SUBSTRUCTURE
     1 HKZ         1

