### 
### Created by X-TOOL on Mon Aug  2 16:16:17 2021
### 

@<TRIPOS>MOLECULE
6q7h_ligand
   43    46     1     0     0
SMALL
GAST_HUCK


@<TRIPOS>ATOM
      1 C1         -2.7060   32.1050   -6.4290 C.ar      1 HL8        -0.0488
      2 C2         -1.9410   32.9970   -5.6650 C.ar      1 HL8        -0.0621
      3 C3         -1.5770   34.2190   -6.2270 C.ar      1 HL8         0.0635
      4 C11        -0.6270   37.4200   -9.0040 C.2       1 HL8         0.0869
      5 C12        -0.5150   36.1180   -8.6600 C.2       1 HL8         0.1416
      6 C13        -3.8090   36.8770   -7.3840 C.2       1 HL8         0.1779
      7 C14         0.2740   38.3890   -9.7000 C.3       1 HL8         0.3314
      8 C16        -4.4340   35.9810   -6.6150 C.2       1 HL8        -0.0391
      9 C17        -5.7380   36.5870   -6.3380 C.2       1 HL8        -0.0352
     10 C18        -5.6530   37.7470   -6.9950 C.2       1 HL8         0.1912
     11 C23        -4.5870   31.4990   -9.6550 C.3       1 HL8         0.0432
     12 C24        -5.4530   30.3970   -8.9540 C.3       1 HL8         0.0510
     13 C25        -4.3860   30.2270   -7.8260 C.3       1 HL8         0.0432
     14 C26        -6.8520   30.7640   -8.4730 C.2       1 HL8         0.0417
     15 C4         -1.9540   34.5290   -7.5360 C.ar      1 HL8         0.1312
     16 C5         -2.7270   33.6410   -8.3020 C.ar      1 HL8         0.0928
     17 C6         -3.1070   32.3890   -7.7540 C.ar      1 HL8         0.0518
     18 N7         -1.6260   35.7430   -8.0440 N.pl3     1 HL8        -0.1468
     19 CL8        -3.1130   34.1940   -9.9380 Cl        1 HL8        -0.0847
     20 C9         -2.4470   36.7690   -7.9660 C.2       1 HL8         0.2013
     21 N10        -1.9220   37.7570   -8.5070 N.2       1 HL8        -0.3086
     22 F15        -0.5070   39.3130  -10.2960 F         1 HL8        -0.2697
     23 O19        -4.5110   37.9810   -7.6370 O.3       1 HL8        -0.2354
     24 CL4        -0.6320   35.3680   -5.3170 Cl        1 HL8        -0.0850
     25 CL3        -6.9490   38.9330   -7.0300 Cl        1 HL8        -0.0229
     26 N22        -3.8950   31.4680   -8.3850 N.pl3     1 HL8        -0.3051
     27 O27        -7.2700   30.5770   -7.3230 O.co2     1 HL8        -0.5686
     28 O28        -7.6270   31.2960   -9.4340 O.co2     1 HL8        -0.5686
     29 F29         1.0390   38.9800   -8.7700 F         1 HL8        -0.2697
     30 F30         1.0780   37.8380  -10.6390 F         1 HL8        -0.2697
     31 C31         0.6560   35.2160   -8.9330 C.3       1 HL8         0.0349
     32 H1         -3.0015   31.1607   -5.9863 H         1 HL8         0.0468
     33 H2         -1.6383   32.7411   -4.6561 H         1 HL8         0.0578
     34 H3         -4.0587   35.0180   -6.2719 H         1 HL8         0.0468
     35 H4         -6.5644   36.1933   -5.7481 H         1 HL8         0.0402
     36 H5         -5.1074   32.4378   -9.8955 H         1 HL8         0.0536
     37 H6         -4.0042   31.1689  -10.5275 H         1 HL8         0.0536
     38 H7         -5.5496   29.4975   -9.5798 H         1 HL8         0.0505
     39 H8         -3.7177   29.3589   -7.9249 H         1 HL8         0.0536
     40 H9         -4.7651   30.2823   -6.7949 H         1 HL8         0.0536
     41 H10         1.4410   35.7823   -9.4556 H         1 HL8         0.0599
     42 H11         0.3314   34.3737   -9.5616 H         1 HL8         0.0599
     43 H12         1.0527   34.8320   -7.9816 H         1 HL8         0.0599
@<TRIPOS>BOND
     1    2    1 ar 
     2   17    1 ar 
     3    3    2 ar 
     4   15    3 ar 
     5    3   24 1  
     6    5    4 2  
     7    4    7 1  
     8    4   21 1  
     9   18    5 1  
    10    5   31 1  
    11    6    8 2  
    12   20    6 1  
    13    6   23 1  
    14    7   22 1  
    15    7   29 1  
    16    7   30 1  
    17    8    9 1  
    18   10    9 2  
    19   23   10 1  
    20   10   25 1  
    21   11   12 1  
    22   26   11 1  
    23   13   12 1  
    24   12   14 1  
    25   26   13 1  
    26   14   27 ar 
    27   14   28 ar 
    28   15   16 ar 
    29   18   15 1  
    30   16   17 ar 
    31   16   19 1  
    32   17   26 1  
    33   18   20 1  
    34   20   21 2  
    35    1   32 1  
    36    2   33 1  
    37    8   34 1  
    38    9   35 1  
    39   11   36 1  
    40   11   37 1  
    41   12   38 1  
    42   13   39 1  
    43   13   40 1  
    44   31   41 1  
    45   31   42 1  
    46   31   43 1  
@<TRIPOS>SUBSTRUCTURE
     1 HL8         1

