### 
### Created by X-TOOL on Mon Aug  2 16:16:18 2021
### 

@<TRIPOS>MOLECULE
6q7v_ligand
   31    32     1     0     0
SMALL
GAST_HUCK


@<TRIPOS>ATOM
      1 C10       -33.9700  -27.0590    5.2510 C.ar      1 HLK        -0.0601
      2 C15       -35.2520  -25.0330    5.2320 C.ar      1 HLK        -0.0601
      3 C17       -31.5910  -21.4460    0.8710 C.3       1 HLK         0.3863
      4 C02       -31.1930  -24.9200    2.0820 C.ar      1 HLK         0.1222
      5 C04       -31.6410  -22.6850    1.7540 C.ar      1 HLK         0.0907
      6 C05       -32.2040  -22.5930    3.0150 C.ar      1 HLK         0.0029
      7 C06       -32.2580  -23.7150    3.8280 C.ar      1 HLK         0.0813
      8 C08       -32.9110  -24.8430    5.9880 C.3       1 HLK         0.0582
      9 C09       -34.0700  -25.6900    5.4790 C.ar      1 HLK        -0.0252
     10 C11       -35.0740  -27.7650    4.7810 C.ar      1 HLK        -0.0348
     11 C12       -36.2640  -27.0930    4.5380 C.ar      1 HLK         0.1248
     12 C14       -36.3370  -25.7360    4.7660 C.ar      1 HLK        -0.0348
     13 C16       -31.7390  -24.9060    3.3490 C.ar      1 HLK         0.0300
     14 F13       -37.3790  -27.7300    4.0760 F         1 HLK        -0.1893
     15 F18       -32.6260  -20.6190    1.1940 F         1 HLK        -0.2161
     16 F19       -31.6950  -21.8110   -0.4390 F         1 HLK        -0.2161
     17 F20       -30.4130  -20.7950    1.0870 F         1 HLK        -0.2161
     18 N01       -30.6560  -26.1760    1.5970 N.pl3     1 HLK        -0.3188
     19 N03       -31.1570  -23.8370    1.3280 N.ar      1 HLK        -0.2773
     20 N07       -32.8370  -23.6490    5.1590 N.pl3     1 HLK        -0.3011
     21 H1        -33.0350  -27.5744    5.4388 H         1 HLK         0.0548
     22 H2        -35.3279  -23.9654    5.4040 H         1 HLK         0.0548
     23 H3        -32.6012  -21.6474    3.3658 H         1 HLK         0.0795
     24 H4        -31.9714  -25.4100    5.9127 H         1 HLK         0.0672
     25 H5        -33.0858  -24.5605    7.0366 H         1 HLK         0.0672
     26 H6        -35.0047  -28.8325    4.6060 H         1 HLK         0.0587
     27 H7        -37.2672  -25.2135    4.5743 H         1 HLK         0.0587
     28 H8        -31.7611  -25.8050    3.9543 H         1 HLK         0.0752
     29 H9        -30.2395  -26.2291    0.6565 H         1 HLK         0.1777
     30 H10       -30.6909  -27.0154    2.1929 H         1 HLK         0.1777
     31 H11       -33.1968  -22.7530    5.5176 H         1 HLK         0.1821
@<TRIPOS>BOND
     1    9    1 ar 
     2    1   10 ar 
     3    9    2 ar 
     4    2   12 ar 
     5    5    3 1  
     6    3   15 1  
     7    3   16 1  
     8    3   17 1  
     9   13    4 ar 
    10    4   18 1  
    11    4   19 ar 
    12    6    5 ar 
    13    5   19 ar 
    14    7    6 ar 
    15    7   13 ar 
    16   20    7 1  
    17    8    9 1  
    18    8   20 1  
    19   10   11 ar 
    20   11   12 ar 
    21   11   14 1  
    22    1   21 1  
    23    2   22 1  
    24    6   23 1  
    25    8   24 1  
    26    8   25 1  
    27   10   26 1  
    28   12   27 1  
    29   13   28 1  
    30   18   29 1  
    31   18   30 1  
    32   20   31 1  
@<TRIPOS>SUBSTRUCTURE
     1 HLK         1

