### 
### Created by X-TOOL on Mon Aug  2 16:16:18 2021
### 

@<TRIPOS>MOLECULE
6q7w_ligand
   37    38     1     0     0
SMALL
GAST_HUCK


@<TRIPOS>ATOM
      1 C10        95.5460   45.6790   10.9730 C.3       1 HLQ         0.0280
      2 C13        93.0560   43.8940    9.3130 C.ar      1 HLQ         0.0028
      3 C17        92.8680   46.2780    9.2090 C.ar      1 HLQ         0.0299
      4 C01        98.3880   49.5810    8.2440 C.ar      1 HLQ        -0.0349
      5 C02        97.4670   49.1440    9.1810 C.ar      1 HLQ        -0.0620
      6 C03        97.8730   48.3260   10.2240 C.ar      1 HLQ        -0.0468
      7 C04        99.2030   47.9560   10.3320 C.ar      1 HLQ        -0.0620
      8 C05       100.1230   48.3930    9.3960 C.ar      1 HLQ        -0.0349
      9 C06        99.7160   49.2060    8.3520 C.ar      1 HLQ         0.1248
     10 C08        96.8740   47.8360   11.2690 C.3       1 HLQ        -0.0192
     11 C09        95.6300   47.1790   10.6790 C.3       1 HLQ        -0.0239
     12 C12        93.3530   45.1420    9.8400 C.ar      1 HLQ         0.0795
     13 C14        92.2810   43.8320    8.1640 C.ar      1 HLQ         0.0906
     14 C16        92.1030   46.1210    8.0640 C.ar      1 HLQ         0.1222
     15 C19        91.9400   42.4740    7.5550 C.3       1 HLQ         0.3863
     16 F07       100.6260   49.6360    7.4320 F         1 HLQ        -0.1893
     17 F20        92.4090   41.4800    8.3610 F         1 HLQ        -0.2161
     18 F21        92.5210   42.3700    6.3240 F         1 HLQ        -0.2161
     19 F22        90.5860   42.3600    7.4260 F         1 HLQ        -0.2161
     20 N11        94.1570   45.2670   11.0510 N.pl3     1 HLQ        -0.3117
     21 N15        91.8310   44.9260    7.5750 N.ar      1 HLQ        -0.2773
     22 N18        91.5900   47.3000    7.3880 N.pl3     1 HLQ        -0.3188
     23 H1         96.0434   45.4668   11.9309 H         1 HLQ         0.0517
     24 H2         96.0470   45.1211   10.1682 H         1 HLQ         0.0517
     25 H3         93.4203   42.9897    9.7870 H         1 HLQ         0.0795
     26 H4         93.0822   47.2652    9.6021 H         1 HLQ         0.0752
     27 H5         98.0691   50.2167    7.4260 H         1 HLQ         0.0587
     28 H6         96.4279   49.4417    9.0990 H         1 HLQ         0.0547
     29 H7         99.5237   47.3229   11.1514 H         1 HLQ         0.0547
     30 H8        101.1629   48.0988    9.4800 H         1 HLQ         0.0587
     31 H9         96.5559   48.6978   11.8741 H         1 HLQ         0.0419
     32 H10        97.3799   47.1021   11.9136 H         1 HLQ         0.0419
     33 H11        94.7410   47.6691   11.1027 H         1 HLQ         0.0306
     34 H12        95.6427   47.3218    9.5884 H         1 HLQ         0.0306
     35 H13        93.7355   45.0613   11.9680 H         1 HLQ         0.1795
     36 H14        91.0201   47.1981    6.5361 H         1 HLQ         0.1777
     37 H15        91.7962   48.2379    7.7606 H         1 HLQ         0.1777
@<TRIPOS>BOND
     1    1   11 1  
     2   20    1 1  
     3   12    2 ar 
     4    2   13 ar 
     5   12    3 ar 
     6    3   14 ar 
     7    5    4 ar 
     8    4    9 ar 
     9    6    5 ar 
    10    6    7 ar 
    11   10    6 1  
    12    7    8 ar 
    13    8    9 ar 
    14    9   16 1  
    15   11   10 1  
    16   12   20 1  
    17   13   15 1  
    18   13   21 ar 
    19   14   21 ar 
    20   14   22 1  
    21   15   17 1  
    22   15   18 1  
    23   15   19 1  
    24    1   23 1  
    25    1   24 1  
    26    2   25 1  
    27    3   26 1  
    28    4   27 1  
    29    5   28 1  
    30    7   29 1  
    31    8   30 1  
    32   10   31 1  
    33   10   32 1  
    34   11   33 1  
    35   11   34 1  
    36   20   35 1  
    37   22   36 1  
    38   22   37 1  
@<TRIPOS>SUBSTRUCTURE
     1 HLQ         1

