### 
### Created by X-TOOL on Mon Aug  2 16:16:19 2021
### 

@<TRIPOS>MOLECULE
6q89_ligand
   57    59     1     0     0
SMALL
GAST_HUCK


@<TRIPOS>ATOM
      1 C1         -3.1570   -4.2110  -28.0590 C.2       1 LSS         0.2460
      2 N1        -13.3330   -8.3550  -27.8920 N.ar      1 LSS        -0.2698
      3 O1         -4.1950   -3.6880  -27.6750 O.2       1 LSS        -0.3891
      4 S1         -4.2320   -6.5150  -27.2150 S.o2      1 LSS         0.1859
      5 C2        -12.9200   -7.9600  -29.1000 C.ar      1 LSS         0.0533
      6 N2         -3.0770   -5.6330  -27.8750 N.am      1 LSS        -0.1294
      7 O2         -9.2920   -4.3230  -29.3760 O.3       1 LSS        -0.3836
      8 N3        -11.6950   -7.6000  -29.4930 N.ar      1 LSS        -0.2714
      9 O3         -7.5860   -4.6010  -31.4160 O.3       1 LSS        -0.3864
     10 C4        -10.8270   -7.6680  -28.4750 C.ar      1 LSS         0.1613
     11 N4         -0.8430   -4.4160  -28.6310 N.4       1 LSS         0.2379
     12 O4         -7.6020   -7.4260  -29.8650 O.3       1 LSS        -0.3367
     13 C5        -11.1030   -8.0720  -27.1760 C.ar      1 LSS         0.1045
     14 O5         -5.5030   -6.5330  -28.1780 O.3       1 LSS        -0.2161
     15 C6        -12.4320   -8.4270  -26.8910 C.ar      1 LSS         0.1298
     16 N6        -12.8550   -8.8110  -25.6790 N.pl3     1 LSS        -0.3152
     17 C7         -1.3170   -1.9020  -30.5620 C.3       1 LSS        -0.0394
     18 N7         -9.9560   -8.0150  -26.4040 N.2       1 LSS        -0.2958
     19 C8         -9.0340   -7.5890  -27.2240 C.2       1 LSS         0.1123
     20 C9         -2.2850   -2.9910  -30.0910 C.3       1 LSS         0.0102
     21 N9         -9.4940   -7.3330  -28.4990 N.pl3     1 LSS        -0.1919
     22 CA         -1.9810   -3.4820  -28.6710 C.3       1 LSS         0.0668
     23 C10        -1.4980   -1.5830  -32.0450 C.3       1 LSS        -0.0623
     24 C11        -1.4520   -0.6410  -29.7040 C.3       1 LSS        -0.0623
     25 O1A        -4.7140   -5.9430  -26.0090 O.2       1 LSS        -0.1218
     26 C21        -8.7650   -6.6790  -29.5730 C.3       1 LSS         0.2010
     27 C22        -8.2640   -5.2840  -29.1970 C.3       1 LSS         0.1385
     28 C23        -7.1040   -5.1020  -30.1730 C.3       1 LSS         0.1146
     29 C24        -6.5590   -6.5330  -30.3330 C.3       1 LSS         0.1161
     30 C25        -5.2710   -6.8290  -29.6000 C.3       1 LSS         0.1073
     31 O2A        -3.7110   -7.8380  -27.2500 O.2       1 LSS        -0.1218
     32 H1        -13.6850   -7.9272  -29.8673 H         1 LSS         0.0996
     33 H2         -2.2464   -6.0994  -28.1792 H         1 LSS         0.2167
     34 H3         -8.9651   -3.4632  -29.1385 H         1 LSS         0.2101
     35 H4         -8.2102   -5.2158  -31.7833 H         1 LSS         0.2100
     36 H5         -0.0305   -3.9729  -29.0305 H         1 LSS         0.2015
     37 H6         -1.0687   -5.2436  -29.1603 H         1 LSS         0.2015
     38 H7         -0.6508   -4.6707  -27.6749 H         1 LSS         0.2015
     39 H8        -12.1878   -8.8745  -24.8969 H         1 LSS         0.1820
     40 H9        -13.8474   -9.0427  -25.5294 H         1 LSS         0.1820
     41 H10        -0.2953   -2.2874  -30.4295 H         1 LSS         0.0299
     42 H11        -7.9954   -7.4484  -26.9282 H         1 LSS         0.1349
     43 H12        -2.2157   -3.8452  -30.7806 H         1 LSS         0.0348
     44 H13        -3.3073   -2.5854  -30.1113 H         1 LSS         0.0348
     45 H14        -1.7434   -2.6030  -28.0538 H         1 LSS         0.1099
     46 H15        -0.7858   -0.7986  -32.3409 H         1 LSS         0.0232
     47 H16        -2.5251   -1.2312  -32.2217 H         1 LSS         0.0232
     48 H17        -1.3133   -2.4894  -32.6403 H         1 LSS         0.0232
     49 H18        -1.3171   -0.9025  -28.6441 H         1 LSS         0.0232
     50 H19        -2.4508   -0.2037  -29.8494 H         1 LSS         0.0232
     51 H20        -0.6851    0.0891  -30.0020 H         1 LSS         0.0232
     52 H21        -9.4146   -6.6139  -30.4583 H         1 LSS         0.0996
     53 H22        -7.9118   -5.2490  -28.1555 H         1 LSS         0.0676
     54 H23        -6.3379   -4.4250  -29.7672 H         1 LSS         0.0648
     55 H24        -6.3792   -6.7124  -31.4033 H         1 LSS         0.0648
     56 H25        -5.0006   -7.8878  -29.7255 H         1 LSS         0.0611
     57 H26        -4.4611   -6.1950  -29.9899 H         1 LSS         0.0611
@<TRIPOS>BOND
     1    1    3 2  
     2    6    1 am 
     3    1   22 1  
     4    5    2 ar 
     5   15    2 ar 
     6    4    6 am 
     7   14    4 1  
     8    4   25 2  
     9    4   31 2  
    10    8    5 ar 
    11   27    7 1  
    12   10    8 ar 
    13   28    9 1  
    14   10   13 ar 
    15   21   10 1  
    16   22   11 1  
    17   12   26 1  
    18   29   12 1  
    19   13   15 ar 
    20   18   13 1  
    21   30   14 1  
    22   15   16 1  
    23   20   17 1  
    24   17   23 1  
    25   17   24 1  
    26   19   18 2  
    27   21   19 1  
    28   22   20 1  
    29   26   21 1  
    30   27   26 1  
    31   28   27 1  
    32   29   28 1  
    33   29   30 1  
    34    5   32 1  
    35    6   33 1  
    36    7   34 1  
    37    9   35 1  
    38   11   36 1  
    39   11   37 1  
    40   11   38 1  
    41   16   39 1  
    42   16   40 1  
    43   17   41 1  
    44   19   42 1  
    45   20   43 1  
    46   20   44 1  
    47   22   45 1  
    48   23   46 1  
    49   23   47 1  
    50   23   48 1  
    51   24   49 1  
    52   24   50 1  
    53   24   51 1  
    54   26   52 1  
    55   27   53 1  
    56   28   54 1  
    57   29   55 1  
    58   30   56 1  
    59   30   57 1  
@<TRIPOS>SUBSTRUCTURE
     1 LSS         1

