### 
### Created by X-TOOL on Mon Aug  2 16:16:20 2021
### 

@<TRIPOS>MOLECULE
6q8b_ligand
   57    58     1     0     0
SMALL
GAST_HUCK


@<TRIPOS>ATOM
      1 N          -0.5030   -3.1620  -28.5910 N.4       1 L3U         0.2379
      2 CA         -1.5960   -2.1700  -28.5090 C.3       1 L3U         0.0668
      3 C          -2.8090   -2.8800  -27.8790 C.2       1 L3U         0.2460
      4 O          -3.8540   -2.3310  -27.5350 O.2       1 L3U        -0.3891
      5 CB         -1.9250   -1.5940  -29.8860 C.3       1 L3U         0.0102
      6 CG         -0.8850   -0.6000  -30.3960 C.3       1 L3U        -0.0394
      7 CD1        -0.8590    0.6140  -29.4810 C.3       1 L3U        -0.0623
      8 CD2        -1.2020   -0.1950  -31.8250 C.3       1 L3U        -0.0623
      9 C1'        -8.2820   -5.3710  -29.4600 C.3       1 L3U         0.2059
     10 C2        -10.4570   -6.1130  -28.6970 C.2       1 L3U         0.3351
     11 C2'        -7.7220   -4.0150  -29.0640 C.3       1 L3U         0.1387
     12 C3'        -6.5470   -3.9010  -30.0450 C.3       1 L3U         0.1146
     13 C3U       -12.6890   -6.6760  -27.9070 C.3       1 L3U         0.0478
     14 C4        -10.7680   -6.9410  -26.3920 C.2       1 L3U         0.1844
     15 C4'        -6.0750   -5.3520  -30.1930 C.3       1 L3U         0.1161
     16 C5         -9.3520   -6.8180  -26.2130 C.2       1 L3U         0.0064
     17 C5'        -4.7900   -5.6750  -29.4690 C.3       1 L3U         0.1073
     18 C6         -8.5790   -6.3440  -27.2020 C.2       1 L3U         0.0591
     19 N1         -9.1130   -5.9840  -28.4120 N.am      1 L3U        -0.1590
     20 N3        -11.2480   -6.5780  -27.6550 N.am      1 L3U        -0.1756
     21 N3S        -2.6640   -4.2800  -27.6470 N.am      1 L3U        -0.1294
     22 O1S        -4.4040   -4.8340  -25.9040 O.2       1 L3U        -0.1218
     23 O2        -10.9290   -5.8890  -29.7970 O.2       1 L3U        -0.3814
     24 O2'        -8.7440   -3.0450  -29.2340 O.3       1 L3U        -0.3836
     25 O2S        -3.0930   -6.5350  -27.1360 O.2       1 L3U        -0.1218
     26 O3'        -6.9050   -3.3820  -31.3220 O.3       1 L3U        -0.3864
     27 O4        -11.5580   -7.2860  -25.5180 O.2       1 L3U        -0.4122
     28 O4'        -7.1500   -6.1840  -29.6890 O.3       1 L3U        -0.3366
     29 O5'        -5.0100   -5.3120  -28.0820 O.3       1 L3U        -0.2161
     30 S          -3.7660   -5.2870  -27.0850 S.o2      1 L3U         0.1859
     31 H1          0.3114   -2.7315  -29.0002 H         1 L3U         0.2015
     32 H2         -0.7960   -3.9383  -29.1633 H         1 L3U         0.2015
     33 H3         -0.2790   -3.4925  -27.6654 H         1 L3U         0.2015
     34 H4         -1.2847   -1.3424  -27.8547 H         1 L3U         0.1099
     35 H5         -2.8962   -1.0810  -29.8256 H         1 L3U         0.0348
     36 H6         -1.9932   -2.4250  -30.6035 H         1 L3U         0.0348
     37 H7          0.1052   -1.0787  -30.3782 H         1 L3U         0.0299
     38 H8         -0.1102    1.3323  -29.8461 H         1 L3U         0.0232
     39 H9         -0.5971    0.2984  -28.4603 H         1 L3U         0.0232
     40 H10        -1.8508    1.0897  -29.4746 H         1 L3U         0.0232
     41 H11        -1.2148   -1.0894  -32.4653 H         1 L3U         0.0232
     42 H12        -0.4338    0.5041  -32.1870 H         1 L3U         0.0232
     43 H13        -2.1870    0.2935  -31.8578 H         1 L3U         0.0232
     44 H14        -8.8797   -5.2726  -30.3782 H         1 L3U         0.0997
     45 H15        -7.3681   -3.9955  -28.0227 H         1 L3U         0.0676
     46 H16        -5.7552   -3.2704  -29.6146 H         1 L3U         0.0648
     47 H17       -12.9035   -6.3573  -28.9377 H         1 L3U         0.0540
     48 H18       -13.2295   -6.0267  -27.2025 H         1 L3U         0.0540
     49 H19       -13.0152   -7.7175  -27.7699 H         1 L3U         0.0540
     50 H20        -5.9202   -5.5611  -31.2618 H         1 L3U         0.0648
     51 H21        -8.8995   -7.1115  -25.2669 H         1 L3U         0.0258
     52 H22        -3.9575   -5.0916  -29.8892 H         1 L3U         0.0611
     53 H23        -4.5641   -6.7484  -29.5518 H         1 L3U         0.0611
     54 H24        -7.5068   -6.2434  -27.0403 H         1 L3U         0.1178
     55 H25        -1.7704   -4.6748  -27.8609 H         1 L3U         0.2167
     56 H26        -8.3769   -2.1764  -29.1190 H         1 L3U         0.2101
     57 H27        -7.6062   -3.9065  -31.6905 H         1 L3U         0.2100
@<TRIPOS>BOND
     1    2    1 1  
     2    3    2 1  
     3    2    5 1  
     4    3    4 2  
     5   21    3 am 
     6    5    6 1  
     7    6    7 1  
     8    6    8 1  
     9    9   11 1  
    10    9   19 1  
    11   28    9 1  
    12   19   10 am 
    13   10   20 am 
    14   10   23 2  
    15   12   11 1  
    16   11   24 1  
    17   15   12 1  
    18   12   26 1  
    19   20   13 1  
    20   16   14 1  
    21   20   14 am 
    22   14   27 2  
    23   17   15 1  
    24   15   28 1  
    25   18   16 2  
    26   29   17 1  
    27   19   18 1  
    28   30   21 am 
    29   30   22 2  
    30   30   25 2  
    31   29   30 1  
    32    1   31 1  
    33    1   32 1  
    34    1   33 1  
    35    2   34 1  
    36    5   35 1  
    37    5   36 1  
    38    6   37 1  
    39    7   38 1  
    40    7   39 1  
    41    7   40 1  
    42    8   41 1  
    43    8   42 1  
    44    8   43 1  
    45    9   44 1  
    46   11   45 1  
    47   12   46 1  
    48   13   47 1  
    49   13   48 1  
    50   13   49 1  
    51   15   50 1  
    52   16   51 1  
    53   17   52 1  
    54   17   53 1  
    55   18   54 1  
    56   21   55 1  
    57   24   56 1  
    58   26   57 1  
@<TRIPOS>SUBSTRUCTURE
     1 L3U         1

