### 
### Created by X-TOOL on Mon Aug  2 16:16:21 2021
### 

@<TRIPOS>MOLECULE
6q8c_ligand
   54    55     1     0     0
SMALL
GAST_HUCK


@<TRIPOS>ATOM
      1 N          -0.6560   -3.8380  -28.9090 N.4       1 LSU         0.2379
      2 CA         -1.6800   -2.8210  -28.7550 C.3       1 LSU         0.0668
      3 C          -2.8860   -3.5090  -28.1240 C.2       1 LSU         0.2460
      4 O          -3.9110   -2.9140  -27.8660 O.2       1 LSU        -0.3891
      5 CB         -2.1200   -2.1850  -30.0700 C.3       1 LSU         0.0102
      6 CG         -1.1990   -1.1550  -30.6950 C.3       1 LSU        -0.0394
      7 CD1        -1.1520    0.1320  -29.9040 C.3       1 LSU        -0.0623
      8 CD2        -1.6120   -0.9020  -32.1170 C.3       1 LSU        -0.0623
      9 C1'        -8.2480   -6.1290  -29.6870 C.3       1 LSU         0.2059
     10 C2        -10.0700   -6.9000  -28.2840 C.2       1 LSU         0.3328
     11 C2'        -7.8490   -4.7320  -29.2700 C.3       1 LSU         0.1387
     12 C3'        -6.7920   -4.4050  -30.3020 C.3       1 LSU         0.1146
     13 C4         -9.5510   -8.0660  -26.1930 C.2       1 LSU         0.1822
     14 C4'        -6.1050   -5.7450  -30.5070 C.3       1 LSU         0.1161
     15 C5         -8.1800   -8.0420  -26.5630 C.2       1 LSU         0.0062
     16 C5'        -4.8290   -5.9590  -29.7450 C.3       1 LSU         0.1073
     17 C6         -7.8160   -7.4600  -27.7090 C.2       1 LSU         0.0591
     18 N1         -8.7220   -6.8800  -28.5550 N.am      1 LSU        -0.1592
     19 N3        -10.4080   -7.4800  -27.0970 N.am      1 LSU        -0.1865
     20 N3S        -2.8310   -4.8510  -27.8410 N.am      1 LSU        -0.1294
     21 O1S        -3.3750   -7.1560  -27.4540 O.2       1 LSU        -0.1218
     22 O2        -10.9080   -6.4900  -29.0620 O.2       1 LSU        -0.3815
     23 O2'        -8.9680   -3.8870  -29.3770 O.3       1 LSU        -0.3836
     24 O2S        -4.5380   -5.4480  -26.1420 O.2       1 LSU        -0.1218
     25 O3'        -7.3990   -3.9600  -31.4960 O.3       1 LSU        -0.3864
     26 O4        -10.0040   -8.5810  -25.1690 O.2       1 LSU        -0.4124
     27 O4'        -7.0680   -6.7460  -30.1380 O.3       1 LSU        -0.3366
     28 O5'        -5.1370   -5.7950  -28.3570 O.3       1 LSU        -0.2161
     29 S          -3.9350   -5.8720  -27.3410 S.o2      1 LSU         0.1859
     30 H1          0.1653   -3.4275  -29.3249 H         1 LSU         0.2015
     31 H2         -1.0011   -4.5750  -29.5038 H         1 LSU         0.2015
     32 H3         -0.4210   -4.2177  -28.0053 H         1 LSU         0.2015
     33 H4         -1.3036   -2.0302  -28.0895 H         1 LSU         0.1099
     34 H5         -3.0882   -1.6947  -29.8906 H         1 LSU         0.0348
     35 H6         -2.2498   -2.9967  -30.8009 H         1 LSU         0.0348
     36 H7         -0.1824   -1.5750  -30.7049 H         1 LSU         0.0299
     37 H8         -0.4725    0.8417  -30.3986 H         1 LSU         0.0232
     38 H9         -0.7882   -0.0758  -28.8869 H         1 LSU         0.0232
     39 H10        -2.1610    0.5668  -29.8509 H         1 LSU         0.0232
     40 H11        -1.6372   -1.8546  -32.6665 H         1 LSU         0.0232
     41 H12        -0.8896   -0.2229  -32.5934 H         1 LSU         0.0232
     42 H13        -2.6117   -0.4433  -32.1324 H         1 LSU         0.0232
     43 H14        -9.0133   -6.0979  -30.4765 H         1 LSU         0.0997
     44 H15        -7.4441   -4.6995  -28.2478 H         1 LSU         0.0676
     45 H16        -6.0878   -3.6445  -29.9336 H         1 LSU         0.0648
     46 H17        -5.8678   -5.8455  -31.5764 H         1 LSU         0.0648
     47 H18        -7.4301   -8.4953  -25.9164 H         1 LSU         0.0258
     48 H19        -4.0758   -5.2195  -30.0545 H         1 LSU         0.0611
     49 H20        -4.4447   -6.9731  -29.9292 H         1 LSU         0.0611
     50 H21        -6.7612   -7.4466  -27.9796 H         1 LSU         0.1178
     51 H22       -11.3791   -7.4796  -26.8585 H         1 LSU         0.2259
     52 H23        -1.9282   -5.2596  -27.9750 H         1 LSU         0.2167
     53 H24        -8.6962   -2.9857  -29.2491 H         1 LSU         0.2101
     54 H25        -8.0471   -4.5955  -31.7764 H         1 LSU         0.2100
@<TRIPOS>BOND
     1    2    1 1  
     2    3    2 1  
     3    2    5 1  
     4    3    4 2  
     5   20    3 am 
     6    5    6 1  
     7    6    7 1  
     8    6    8 1  
     9    9   11 1  
    10    9   18 1  
    11   27    9 1  
    12   18   10 am 
    13   10   19 am 
    14   10   22 2  
    15   12   11 1  
    16   11   23 1  
    17   14   12 1  
    18   12   25 1  
    19   15   13 1  
    20   19   13 am 
    21   13   26 2  
    22   16   14 1  
    23   14   27 1  
    24   17   15 2  
    25   28   16 1  
    26   18   17 1  
    27   29   20 am 
    28   29   21 2  
    29   29   24 2  
    30   28   29 1  
    31    1   30 1  
    32    1   31 1  
    33    1   32 1  
    34    2   33 1  
    35    5   34 1  
    36    5   35 1  
    37    6   36 1  
    38    7   37 1  
    39    7   38 1  
    40    7   39 1  
    41    8   40 1  
    42    8   41 1  
    43    8   42 1  
    44    9   43 1  
    45   11   44 1  
    46   12   45 1  
    47   14   46 1  
    48   15   47 1  
    49   16   48 1  
    50   16   49 1  
    51   17   50 1  
    52   19   51 1  
    53   20   52 1  
    54   23   53 1  
    55   25   54 1  
@<TRIPOS>SUBSTRUCTURE
     1 LSU         1

