### 
### Created by X-TOOL on Mon Aug  2 16:16:21 2021
### 

@<TRIPOS>MOLECULE
6q8k_ligand
   48    51     1     0     0
SMALL
GAST_HUCK


@<TRIPOS>ATOM
      1 N         -13.4000   13.3300   18.0410 N.pl3     1 FG9        -0.3255
      2 C         -14.2940   12.3490   17.9160 C.ar      1 FG9         0.0837
      3 C17       -14.0580   11.3200   17.0320 C.ar      1 FG9         0.0695
      4 C7        -14.9810   10.2640   16.8500 C.ar      1 FG9         0.0131
      5 C6        -16.1300   10.2700   17.6390 C.ar      1 FG9        -0.0488
      6 C5        -16.3980   11.3000   18.5380 C.ar      1 FG9        -0.0013
      7 C4        -17.5380   11.3370   19.3630 C.ar      1 FG9         0.0140
      8 N1        -17.7950   12.2980   20.2390 N.ar      1 FG9        -0.3023
      9 C3        -16.9200   13.3040   20.3270 C.ar      1 FG9         0.0032
     10 C2        -15.7840   13.3910   19.5890 C.ar      1 FG9        -0.0332
     11 C1        -15.4770   12.3710   18.6630 C.ar      1 FG9         0.0258
     12 N5        -12.9130   11.4310   16.3530 N.ar      1 FG9        -0.2699
     13 C9        -12.6520   10.4920   15.4600 C.ar      1 FG9         0.1856
     14 N2        -13.4260    9.4320   15.1670 N.ar      1 FG9        -0.2429
     15 C8        -14.5500    9.3380   15.8460 C.ar      1 FG9         0.0305
     16 N3        -11.4720   10.6580   14.8330 N.pl3     1 FG9        -0.2907
     17 C10       -10.7670    9.8510   13.8640 C.3       1 FG9         0.0352
     18 C11        -9.3080   10.1560   14.0420 C.3       1 FG9         0.0079
     19 C12        -9.0740   11.4900   14.7180 C.3       1 FG9        -0.0298
     20 N4         -8.1560   11.3870   15.8540 N.4       1 FG9         0.2385
     21 C16        -6.7890   11.0320   15.4250 C.3       1 FG9        -0.0078
     22 C15        -6.0800   12.2370   14.8690 C.3       1 FG9         0.0878
     23 O          -6.0020   13.2680   15.8290 O.3       1 FG9        -0.3693
     24 C14        -7.3230   13.7020   16.0950 C.3       1 FG9         0.0878
     25 C13        -8.1620   12.5990   16.7040 C.3       1 FG9        -0.0078
     26 H1        -12.5310   13.3083   17.4885 H         1 FG9         0.1802
     27 H2        -13.5783   14.1096   18.6901 H         1 FG9         0.1802
     28 H3        -16.8344    9.4508   17.5507 H         1 FG9         0.0522
     29 H4        -18.2525   10.5265   19.2762 H         1 FG9         0.0848
     30 H5        -17.1304   14.1004   21.0317 H         1 FG9         0.0727
     31 H6        -15.1177   14.2374   19.7099 H         1 FG9         0.0721
     32 H7        -15.1979    8.4965   15.6289 H         1 FG9         0.0998
     33 H8        -10.9788   11.5239   15.0934 H         1 FG9         0.1858
     34 H9        -11.0889   10.1118   12.8450 H         1 FG9         0.0526
     35 H10       -10.9577    8.7832   14.0468 H         1 FG9         0.0526
     36 H11        -8.8276   10.1727   13.0526 H         1 FG9         0.0337
     37 H12        -8.8544    9.3645   14.6566 H         1 FG9         0.0337
     38 H13       -10.0385   11.8778   15.0774 H         1 FG9         0.0815
     39 H14        -8.6488   12.1889   13.9826 H         1 FG9         0.0815
     40 H15        -8.4895   10.6283   16.4278 H         1 FG9         0.2035
     41 H16        -6.8439   10.2545   14.6488 H         1 FG9         0.0837
     42 H17        -6.2268   10.6484   16.2892 H         1 FG9         0.0837
     43 H18        -6.6310   12.6047   13.9909 H         1 FG9         0.0613
     44 H19        -5.0620   11.9481   14.5686 H         1 FG9         0.0613
     45 H20        -7.7888   14.0252   15.1524 H         1 FG9         0.0613
     46 H21        -7.2858   14.5496   16.7951 H         1 FG9         0.0613
     47 H22        -7.7553   12.3445   17.6939 H         1 FG9         0.0837
     48 H23        -9.1971   12.9549   16.8133 H         1 FG9         0.0837
@<TRIPOS>BOND
     1    1    2 1  
     2    2    3 ar 
     3    2   11 ar 
     4    3    4 ar 
     5    3   12 ar 
     6    4    5 ar 
     7    4   15 ar 
     8    5    6 ar 
     9    6    7 ar 
    10    6   11 ar 
    11    7    8 ar 
    12    8    9 ar 
    13    9   10 ar 
    14   10   11 ar 
    15   12   13 ar 
    16   13   14 ar 
    17   13   16 1  
    18   14   15 ar 
    19   16   17 1  
    20   17   18 1  
    21   18   19 1  
    22   19   20 1  
    23   20   21 1  
    24   20   25 1  
    25   21   22 1  
    26   22   23 1  
    27   23   24 1  
    28   24   25 1  
    29    1   26 1  
    30    1   27 1  
    31    5   28 1  
    32    7   29 1  
    33    9   30 1  
    34   10   31 1  
    35   15   32 1  
    36   16   33 1  
    37   17   34 1  
    38   17   35 1  
    39   18   36 1  
    40   18   37 1  
    41   19   38 1  
    42   19   39 1  
    43   20   40 1  
    44   21   41 1  
    45   21   42 1  
    46   22   43 1  
    47   22   44 1  
    48   24   45 1  
    49   24   46 1  
    50   25   47 1  
    51   25   48 1  
@<TRIPOS>SUBSTRUCTURE
     1 FG9         1

