### 
### Created by X-TOOL on Mon Aug  2 16:16:21 2021
### 

@<TRIPOS>MOLECULE
6q8p_ligand
   28    30     1     0     0
SMALL
GAST_HUCK


@<TRIPOS>ATOM
      1 C1        -13.5880    4.2630   36.5330 C.ar      1 HQB         0.0652
      2 C2        -13.4750    4.6770   37.8240 C.ar      1 HQB         0.0978
      3 C3        -13.2330    2.5560   38.6130 C.ar      1 HQB         0.1033
      4 C4        -13.3350    1.9890   37.3210 C.ar      1 HQB         0.1377
      5 C5        -13.2510    0.6190   37.0820 C.ar      1 HQB         0.0728
      6 C6        -13.3080    0.0570   35.8040 C.ar      1 HQB         0.1465
      7 C7        -13.4770    0.9270   34.6980 C.ar      1 HQB         0.2349
      8 C8        -13.5900    2.3330   34.9410 C.ar      1 HQB         0.2521
      9 C9        -13.3460   -0.8580   33.2550 C.ar      1 HQB         0.2876
     10 C10       -13.3880   -0.4520   30.8360 C.3       1 HQB         0.0312
     11 C11       -13.1790   -1.3090   35.4520 C.ar      1 HQB         0.0921
     12 O1        -14.6180    4.0890   33.9100 O.2       1 HQB        -0.4355
     13 N1        -13.7670    3.2190   33.8220 N.2       1 HQB        -0.1066
     14 O         -13.0460    3.0740   32.8490 O.2       1 HQB        -0.4355
     15 C         -13.5140    2.8810   36.2350 C.ar      1 HQB         0.1694
     16 N2        -13.5010    0.4640   33.4150 N.ar      1 HQB        -0.1244
     17 N3        -13.2950   -1.3080   31.9960 N.pl3     1 HQB        -0.2590
     18 N4        -13.1950   -1.7710   34.2230 N.ar      1 HQB        -0.1758
     19 N         -13.2970    3.8530   38.8650 N.ar      1 HQB        -0.2034
     20 H1        -13.7336    4.9859   35.7385 H         1 HQB         0.1317
     21 H2        -13.5327    5.7411   38.0228 H         1 HQB         0.1235
     22 H3        -13.0932    1.8835   39.4516 H         1 HQB         0.1337
     23 H4        -13.1355   -0.0450   37.9310 H         1 HQB         0.1665
     24 H5        -13.3197   -1.0624   29.9235 H         1 HQB         0.0519
     25 H6        -12.5648    0.2774   30.8516 H         1 HQB         0.0519
     26 H7        -14.3503    0.0807   30.8496 H         1 HQB         0.0519
     27 H8        -13.0582   -2.0256   36.2563 H         1 HQB         0.1317
     28 H9        -13.1832   -2.3208   31.8455 H         1 HQB         0.2068
@<TRIPOS>BOND
     1    2    1 ar 
     2    1   15 ar 
     3   19    2 ar 
     4    3    4 ar 
     5    3   19 ar 
     6    4    5 ar 
     7    4   15 ar 
     8    5    6 ar 
     9    6    7 ar 
    10    6   11 ar 
    11    7    8 ar 
    12    7   16 ar 
    13    8   13 1  
    14    8   15 ar 
    15   16    9 ar 
    16    9   17 1  
    17    9   18 ar 
    18   17   10 1  
    19   11   18 ar 
    20   13   12 2  
    21   13   14 2  
    22    1   20 1  
    23    2   21 1  
    24    3   22 1  
    25    5   23 1  
    26   10   24 1  
    27   10   25 1  
    28   10   26 1  
    29   11   27 1  
    30   17   28 1  
@<TRIPOS>SUBSTRUCTURE
     1 HQB         1

