### 
### Created by X-TOOL on Mon Aug  2 16:16:22 2021
### 

@<TRIPOS>MOLECULE
6q96_ligand
   64    68     1     0     0
SMALL
GAST_HUCK


@<TRIPOS>ATOM
      1 C1        -14.7260   -1.5210   13.4180 C.ar      1 HRE         0.0396
      2 C3        -16.0590   -2.2650   15.2210 C.ar      1 HRE         0.1733
      3 C11       -17.0360    0.0100    9.7110 C.3       1 HRE        -0.0508
      4 C12       -18.1730   -2.3090    9.8020 C.3       1 HRE        -0.0508
      5 C14       -17.9390   -5.0400   12.8850 C.3       1 HRE         0.0648
      6 C16       -17.3750   -3.1550   17.0830 C.3       1 HRE         0.0208
      7 C17       -14.8940   -2.3050    9.1510 C.2       1 HRE         0.0317
      8 C18       -13.7030   -2.9220    9.6210 C.2       1 HRE         0.1096
      9 C19       -12.8360   -3.2090    8.4980 C.2       1 HRE         0.2366
     10 C21       -14.8120   -2.1350    7.6520 C.3       1 HRE         0.1203
     11 C23       -15.8840   -2.8480    6.8000 C.ar      1 HRE         0.0013
     12 C24       -16.4830   -2.1740    5.7210 C.ar      1 HRE        -0.0452
     13 C25       -17.7290   -4.1810    5.1570 C.ar      1 HRE         0.0880
     14 C26       -17.1240   -4.8630    6.2140 C.ar      1 HRE        -0.0335
     15 C27       -17.4150   -2.8360    4.9010 C.ar      1 HRE        -0.0335
     16 C28       -16.1900   -4.2020    7.0240 C.ar      1 HRE        -0.0452
     17 C29       -15.9870   -1.0320   17.3370 C.3       1 HRE         0.0208
     18 C30       -18.6700   -4.8810    4.3300 C.1       1 HRE         0.0930
     19 N2        -15.1080   -1.4340   14.7150 N.ar      1 HRE        -0.2750
     20 N4        -16.6430   -3.1850   14.4120 N.ar      1 HRE        -0.2330
     21 C5        -16.2970   -3.3110   13.1120 C.ar      1 HRE         0.2071
     22 C6        -15.3130   -2.4770   12.5810 C.ar      1 HRE         0.1787
     23 N7        -14.9360   -2.5360   11.2790 N.pl3     1 HRE        -0.1594
     24 N8        -13.7570   -3.0540   10.8670 N.2       1 HRE        -0.1985
     25 C9        -15.6370   -2.0610   10.2610 C.2       1 HRE         0.0914
     26 C10       -17.0140   -1.4130   10.3330 C.3       1 HRE         0.0132
     27 O13       -16.8970   -4.2520   12.2850 O.3       1 HRE        -0.2964
     28 N15       -16.4570   -2.1630   16.5190 N.pl3     1 HRE        -0.2873
     29 N20       -13.4740   -2.8000    7.3730 N.am      1 HRE        -0.2004
     30 O22       -11.7480   -3.7430    8.6510 O.2       1 HRE        -0.3766
     31 N31       -19.4250   -5.4440    3.6650 N.1       1 HRE        -0.3341
     32 C32       -12.8860   -2.8560    6.1350 C.2       1 HRE         0.1327
     33 C33       -11.9520   -1.7330    5.8520 C.2       1 HRE         0.2358
     34 C34       -11.4390   -2.5540    3.6870 C.2       1 HRE         0.0508
     35 C35       -12.2470   -3.6100    3.8800 C.2       1 HRE         0.0285
     36 N36       -11.2900   -1.6380    4.6710 N.am      1 HRE        -0.2331
     37 C37       -12.9930   -3.7770    5.1500 C.2       1 HRE        -0.0488
     38 O38       -11.7930   -0.8800    6.7210 O.2       1 HRE        -0.4118
     39 CL        -12.4360   -4.7940    2.6040 Cl        1 HRE        -0.1066
     40 H1        -13.9672   -0.8515   13.0293 H         1 HRE         0.0816
     41 H2        -18.0501    0.4289    9.7897 H         1 HRE         0.0255
     42 H3        -16.7446   -0.0482    8.6519 H         1 HRE         0.0255
     43 H4        -16.3291    0.6571   10.2508 H         1 HRE         0.0255
     44 H5        -18.1131   -3.3021   10.2711 H         1 HRE         0.0255
     45 H6        -18.0853   -2.4133    8.7105 H         1 HRE         0.0255
     46 H7        -19.1387   -1.8442   10.0496 H         1 HRE         0.0255
     47 H8        -18.3384   -5.7463   12.1423 H         1 HRE         0.0587
     48 H9        -18.7458   -4.3778   13.2321 H         1 HRE         0.0587
     49 H10       -17.5301   -5.5990   13.7396 H         1 HRE         0.0587
     50 H11       -17.5798   -2.9085   18.1353 H         1 HRE         0.0488
     51 H12       -16.9179   -4.1537   17.0227 H         1 HRE         0.0488
     52 H13       -18.3168   -3.1479   16.5147 H         1 HRE         0.0488
     53 H14       -14.8064   -1.0664    7.3913 H         1 HRE         0.0883
     54 H15       -16.2256   -1.1403    5.5202 H         1 HRE         0.0584
     55 H16       -17.3753   -5.8995    6.4078 H         1 HRE         0.0701
     56 H17       -17.8872   -2.3121    4.0778 H         1 HRE         0.0701
     57 H18       -15.7003   -4.7385    7.8286 H         1 HRE         0.0584
     58 H19       -15.3105   -0.4034   16.7393 H         1 HRE         0.0488
     59 H20       -15.4499   -1.4145   18.2175 H         1 HRE         0.0488
     60 H21       -16.8495   -0.4333   17.6651 H         1 HRE         0.0488
     61 H22       -17.2170   -1.2750   11.4052 H         1 HRE         0.0478
     62 H23       -10.9072   -2.4363    2.7440 H         1 HRE         0.1006
     63 H24       -10.6720   -0.8657    4.5235 H         1 HRE         0.2476
     64 H25       -13.6319   -4.6475    5.2911 H         1 HRE         0.0376
@<TRIPOS>BOND
     1    1   19 ar 
     2   22    1 ar 
     3   19    2 ar 
     4   20    2 ar 
     5    2   28 1  
     6   26    3 1  
     7   26    4 1  
     8   27    5 1  
     9   28    6 1  
    10    7    8 1  
    11   10    7 1  
    12    7   25 2  
    13    9    8 1  
    14    8   24 2  
    15   29    9 am 
    16    9   30 2  
    17   10   11 1  
    18   29   10 1  
    19   11   12 ar 
    20   11   16 ar 
    21   12   15 ar 
    22   14   13 ar 
    23   15   13 ar 
    24   13   18 1  
    25   16   14 ar 
    26   28   17 1  
    27   18   31 3  
    28   21   20 ar 
    29   22   21 ar 
    30   21   27 1  
    31   23   22 1  
    32   24   23 1  
    33   25   23 1  
    34   25   26 1  
    35   32   29 1  
    36   33   32 1  
    37   32   37 2  
    38   36   33 am 
    39   33   38 2  
    40   34   35 2  
    41   34   36 1  
    42   35   37 1  
    43   35   39 1  
    44    1   40 1  
    45    3   41 1  
    46    3   42 1  
    47    3   43 1  
    48    4   44 1  
    49    4   45 1  
    50    4   46 1  
    51    5   47 1  
    52    5   48 1  
    53    5   49 1  
    54    6   50 1  
    55    6   51 1  
    56    6   52 1  
    57   10   53 1  
    58   12   54 1  
    59   14   55 1  
    60   15   56 1  
    61   16   57 1  
    62   17   58 1  
    63   17   59 1  
    64   17   60 1  
    65   26   61 1  
    66   34   62 1  
    67   36   63 1  
    68   37   64 1  
@<TRIPOS>SUBSTRUCTURE
     1 HRE         1

