### 
### Created by X-TOOL on Mon Aug  2 16:16:22 2021
### 

@<TRIPOS>MOLECULE
6q9h_ligand
   46    49     1     0     0
SMALL
GAST_HUCK


@<TRIPOS>ATOM
      1 C2          3.6290   11.8480    3.0470 C.ar      1 HRH         0.1659
      2 C3          2.3150   11.3990    3.2260 C.ar      1 HRH         0.0603
      3 C42         4.1310   12.3280   -1.2940 C.3       1 HRH        -0.0334
      4 C12         6.3200   12.2570    0.8510 C.3       1 HRH         0.1212
      5 C14         7.7520   12.4560    1.2170 C.2       1 HRH         0.0369
      6 C15         8.0730   11.9510    2.3940 C.2       1 HRH         0.1599
      7 C19         8.9900   13.0120    0.6790 C.2       1 HRH         0.0300
      8 C20         9.2230   13.7030   -0.6340 C.3       1 HRH        -0.0083
      9 C22         8.3990   13.0030   -1.7520 C.3       1 HRH        -0.0539
     10 C26         8.8520   15.2020   -0.5280 C.3       1 HRH        -0.0539
     11 C30         6.8800   11.3600    2.9880 C.2       1 HRH         0.2547
     12 F1          3.9820   12.9930    3.6030 F         1 HRH        -0.1929
     13 C4          1.9040   10.1850    2.6530 C.ar      1 HRH        -0.0650
     14 C6          2.8050    9.4240    1.8990 C.ar      1 HRH        -0.0789
     15 C8          4.1160    9.8830    1.7300 C.ar      1 HRH        -0.0420
     16 C10         4.5480   11.0990    2.2960 C.ar      1 HRH         0.1068
     17 N11         5.8960   11.5440    2.0850 N.am      1 HRH        -0.1982
     18 N16         9.3220   12.1400    2.6540 N.pl3     1 HRH        -0.2198
     19 N18         9.8540   12.7830    1.5870 N.2       1 HRH        -0.2223
     20 O31         6.8140   10.8140    4.0770 O.2       1 HRH        -0.3776
     21 C32         5.4250   13.4930    0.6210 C.ar      1 HRH        -0.0036
     22 C33         4.3910   13.5010   -0.3400 C.ar      1 HRH        -0.0395
     23 C34         3.5700   14.6250   -0.4640 C.ar      1 HRH        -0.0530
     24 C36         3.7430   15.7270    0.3770 C.ar      1 HRH         0.0264
     25 C37         4.7470   15.7160    1.3430 C.ar      1 HRH        -0.0613
     26 C39         5.5780   14.6000    1.4750 C.ar      1 HRH        -0.0622
     27 CL1         2.6870   17.1140    0.2310 Cl        1 HRH        -0.0788
     28 CL2         1.1800   12.3480    4.1720 Cl        1 HRH        -0.0765
     29 H1          3.2778   12.5676   -1.9457 H         1 HRH         0.0376
     30 H2          3.9038   11.4239   -0.7101 H         1 HRH         0.0376
     31 H3          5.0249   12.1515   -1.9103 H         1 HRH         0.0376
     32 H4          6.2445   11.6178   -0.0410 H         1 HRH         0.0877
     33 H5         10.2908   13.6265   -0.8870 H         1 HRH         0.0436
     34 H6          8.5739   13.5135   -2.7106 H         1 HRH         0.0251
     35 H7          7.3288   13.0489   -1.5021 H         1 HRH         0.0251
     36 H8          8.7116   11.9516   -1.8342 H         1 HRH         0.0251
     37 H9          9.4480   15.6718    0.2683 H         1 HRH         0.0251
     38 H10         7.7822   15.2991   -0.2911 H         1 HRH         0.0251
     39 H11         9.0622   15.7004   -1.4858 H         1 HRH         0.0251
     40 H12         0.8874    9.8364    2.7947 H         1 HRH         0.0484
     41 H13         2.4903    8.4886    1.4506 H         1 HRH         0.0544
     42 H14         4.8147    9.2901    1.1509 H         1 HRH         0.0492
     43 H15         9.8200   11.8562    3.5098 H         1 HRH         0.2492
     44 H16         2.7924   14.6419   -1.2191 H         1 HRH         0.0543
     45 H17         4.8836   16.5732    1.9923 H         1 HRH         0.0548
     46 H18         6.3454   14.5876    2.2405 H         1 HRH         0.0541
@<TRIPOS>BOND
     1    1    2 ar 
     2    1   12 1  
     3   16    1 ar 
     4    2   13 ar 
     5    2   28 1  
     6   22    3 1  
     7    4    5 1  
     8    4   17 1  
     9   21    4 1  
    10    5    6 2  
    11    5    7 1  
    12   11    6 1  
    13    6   18 1  
    14    7    8 1  
    15    7   19 2  
    16    8    9 1  
    17    8   10 1  
    18   17   11 am 
    19   11   20 2  
    20   14   13 ar 
    21   15   14 ar 
    22   16   15 ar 
    23   17   16 1  
    24   19   18 1  
    25   21   22 ar 
    26   21   26 ar 
    27   22   23 ar 
    28   23   24 ar 
    29   24   25 ar 
    30   24   27 1  
    31   25   26 ar 
    32    3   29 1  
    33    3   30 1  
    34    3   31 1  
    35    4   32 1  
    36    8   33 1  
    37    9   34 1  
    38    9   35 1  
    39    9   36 1  
    40   10   37 1  
    41   10   38 1  
    42   10   39 1  
    43   13   40 1  
    44   14   41 1  
    45   15   42 1  
    46   18   43 1  
    47   23   44 1  
    48   25   45 1  
    49   26   46 1  
@<TRIPOS>SUBSTRUCTURE
     1 HRH         1

