### 
### Created by X-TOOL on Mon Aug  2 16:16:22 2021
### 

@<TRIPOS>MOLECULE
6q9l_ligand
   88    93     1     0     0
SMALL
GAST_HUCK


@<TRIPOS>ATOM
      1 C5         13.6610   11.9710    5.7320 C.ar      1 HTZ         0.0712
      2 C8         12.9020   14.0350    5.6860 C.2       1 HTZ         0.1462
      3 C10        13.1140   12.1380    4.4620 C.ar      1 HTZ        -0.0037
      4 C13        13.6830    9.9120    3.9220 C.ar      1 HTZ        -0.0616
      5 C15        11.8130   14.0070    3.3020 C.2       1 HTZ         0.0850
      6 C17        10.0050   14.6290    2.2340 C.2       1 HTZ         0.1010
      7 C20        12.1380   14.2120    2.0090 C.2       1 HTZ         0.0297
      8 C21        13.4420   14.1470    1.3300 C.ar      1 HTZ        -0.0299
      9 C22        13.4610   14.0490   -0.0700 C.ar      1 HTZ        -0.0626
     10 C24        14.6990   14.0030   -0.7250 C.ar      1 HTZ        -0.0677
     11 C26        15.8950   14.1150   -0.0260 C.ar      1 HTZ        -0.0676
     12 C28        15.8530   14.2370    1.3710 C.ar      1 HTZ        -0.0677
     13 CL1        14.9130    8.1840    5.6250 Cl        1 HTZ        -0.0771
     14 C2         14.2330    9.7360    5.1920 C.ar      1 HTZ         0.0289
     15 C3         14.2460   10.7540    6.1490 C.ar      1 HTZ        -0.0254
     16 N6         13.4940   13.1100    6.4270 N.pl3     1 HTZ        -0.2643
     17 C9         12.5990   13.5350    4.4470 C.2       1 HTZ         0.0356
     18 C11        13.1060   11.1190    3.5180 C.ar      1 HTZ        -0.0686
     19 N16        10.4770   14.2550    3.4200 N.pl3     1 HTZ        -0.2327
     20 N19        10.9340   14.6300    1.3700 N.2       1 HTZ        -0.3181
     21 C30        14.6300   14.2290    2.0190 C.ar      1 HTZ        -0.0626
     22 C32         9.6480   14.1740    4.6190 C.3       1 HTZ         0.0898
     23 C35         9.5660   12.7800    5.2330 C.ar      1 HTZ        -0.0082
     24 C36         9.3870   12.5750    6.6060 C.ar      1 HTZ        -0.0125
     25 C37         9.3030   11.2720    7.0760 C.ar      1 HTZ        -0.0507
     26 C39         9.3670   10.1970    6.2180 C.ar      1 HTZ         0.0264
     27 C40         9.5910   10.3650    4.8700 C.ar      1 HTZ        -0.0614
     28 C42         9.6640   11.6780    4.3840 C.ar      1 HTZ        -0.0634
     29 CL2         9.2340    8.6050    6.8890 Cl        1 HTZ        -0.0789
     30 C45         9.2800   13.7680    7.5610 C.3       1 HTZ         0.0759
     31 O48         8.1770   14.6060    7.1810 O.3       1 HTZ        -0.3837
     32 C50        12.5690   15.3190    6.3110 C.2       1 HTZ         0.2304
     33 O51        12.4660   15.3070    7.5710 O.2       1 HTZ        -0.3850
     34 N52        12.2830   16.4280    5.6230 N.am      1 HTZ        -0.2660
     35 C53        12.5110   16.7120    4.2270 C.3       1 HTZ         0.0759
     36 C56        12.9060   18.2190    4.2590 C.3       1 HTZ         0.0014
     37 C58        11.8380   18.7070    5.2370 C.3       1 HTZ         0.0125
     38 C61        11.8990   17.6490    6.3530 C.3       1 HTZ         0.0385
     39 N64        12.8000   18.7980    2.9050 N.4       1 HTZ         0.2368
     40 C65        13.8140   18.2100    2.0230 C.3       1 HTZ        -0.0269
     41 C68        13.5100   18.5040    0.5390 C.3       1 HTZ         0.0277
     42 C71        14.5040   17.7040   -0.3220 C.3       1 HTZ        -0.0275
     43 N74        14.3590   17.9100   -1.7800 N.4       1 HTZ         0.2310
     44 C75        13.0790   17.3570   -2.3070 C.3       1 HTZ        -0.0433
     45 C79        15.5010   17.3800   -2.5700 C.3       1 HTZ        -0.0433
     46 C83        12.9550   20.2630    2.9890 C.3       1 HTZ        -0.0428
     47 H1         13.7040    9.0831    3.2238 H         1 HTZ         0.0530
     48 H2          8.9686   14.8963    2.0332 H         1 HTZ         0.1240
     49 H3         12.5359   14.0097   -0.6337 H         1 HTZ         0.0569
     50 H4         14.7244   13.8772   -1.8014 H         1 HTZ         0.0601
     51 H5         16.8434   14.1082   -0.5509 H         1 HTZ         0.0568
     52 H6         16.7712   14.3367    1.9385 H         1 HTZ         0.0601
     53 H7         14.6725   10.6204    7.1366 H         1 HTZ         0.0558
     54 H8         13.7872   13.2453    7.4051 H         1 HTZ         0.2279
     55 H9         12.6792   11.2517    2.5304 H         1 HTZ         0.0564
     56 H10        14.6075   14.2891    3.1011 H         1 HTZ         0.0569
     57 H11         8.6293   14.4948    4.3557 H         1 HTZ         0.0769
     58 H12        10.0647   14.8583    5.3727 H         1 HTZ         0.0769
     59 H13         9.1847   11.0971    8.1392 H         1 HTZ         0.0544
     60 H14         9.7066    9.5137    4.2090 H         1 HTZ         0.0548
     61 H15         9.8001   11.8408    3.3210 H         1 HTZ         0.0539
     62 H16        10.2115   14.3517    7.5201 H         1 HTZ         0.0706
     63 H17         9.1220   13.4009    8.5858 H         1 HTZ         0.0706
     64 H18         7.3717   14.1033    7.2173 H         1 HTZ         0.2124
     65 H19        11.5993   16.5511    3.6330 H         1 HTZ         0.0577
     66 H20        13.3262   16.0944    3.8221 H         1 HTZ         0.0577
     67 H21        13.9212   18.3829    4.6495 H         1 HTZ         0.0872
     68 H22        10.8454   18.7283    4.7634 H         1 HTZ         0.0340
     69 H23        12.0811   19.7075    5.6242 H         1 HTZ         0.0340
     70 H24        12.6535   17.9130    7.1086 H         1 HTZ         0.0523
     71 H25        10.9196   17.5288    6.8392 H         1 HTZ         0.0523
     72 H26        11.8879   18.5893    2.5301 H         1 HTZ         0.2034
     73 H27        13.8323   17.1208    2.1753 H         1 HTZ         0.0816
     74 H28        14.7974   18.6324    2.2771 H         1 HTZ         0.0816
     75 H29        13.6270   19.5796    0.3407 H         1 HTZ         0.0369
     76 H30        12.4807   18.1972    0.3017 H         1 HTZ         0.0369
     77 H31        14.3583   16.6345   -0.1103 H         1 HTZ         0.0816
     78 H32        15.5235   17.9994   -0.0333 H         1 HTZ         0.0816
     79 H33        14.3364   18.9069   -1.9274 H         1 HTZ         0.2028
     80 H34        13.0211   17.5356   -3.3909 H         1 HTZ         0.0777
     81 H35        12.2327   17.8519   -1.8081 H         1 HTZ         0.0777
     82 H36        13.0386   16.2754   -2.1110 H         1 HTZ         0.0777
     83 H37        16.4418   17.7918   -2.1760 H         1 HTZ         0.0777
     84 H38        15.3853   17.6732   -3.6239 H         1 HTZ         0.0777
     85 H39        15.5211   16.2828   -2.4947 H         1 HTZ         0.0777
     86 H40        12.1833   20.6757    3.6554 H         1 HTZ         0.0778
     87 H41        12.8460   20.7014    1.9860 H         1 HTZ         0.0778
     88 H42        13.9512   20.5040    3.3883 H         1 HTZ         0.0778
@<TRIPOS>BOND
     1    3    1 ar 
     2    1   15 ar 
     3    1   16 1  
     4    2   16 1  
     5   17    2 2  
     6    2   32 1  
     7   17    3 1  
     8    3   18 ar 
     9    4   14 ar 
    10   18    4 ar 
    11    5    7 2  
    12    5   17 1  
    13    5   19 1  
    14   19    6 1  
    15    6   20 2  
    16    7    8 1  
    17    7   20 1  
    18    8    9 ar 
    19    8   21 ar 
    20    9   10 ar 
    21   10   11 ar 
    22   11   12 ar 
    23   12   21 ar 
    24   14   13 1  
    25   14   15 ar 
    26   19   22 1  
    27   22   23 1  
    28   23   24 ar 
    29   23   28 ar 
    30   24   25 ar 
    31   24   30 1  
    32   25   26 ar 
    33   26   27 ar 
    34   26   29 1  
    35   27   28 ar 
    36   30   31 1  
    37   32   33 2  
    38   32   34 am 
    39   34   35 1  
    40   34   38 1  
    41   35   36 1  
    42   36   37 1  
    43   36   39 1  
    44   37   38 1  
    45   39   40 1  
    46   39   46 1  
    47   40   41 1  
    48   41   42 1  
    49   42   43 1  
    50   43   44 1  
    51   43   45 1  
    52    4   47 1  
    53    6   48 1  
    54    9   49 1  
    55   10   50 1  
    56   11   51 1  
    57   12   52 1  
    58   15   53 1  
    59   16   54 1  
    60   18   55 1  
    61   21   56 1  
    62   22   57 1  
    63   22   58 1  
    64   25   59 1  
    65   27   60 1  
    66   28   61 1  
    67   30   62 1  
    68   30   63 1  
    69   31   64 1  
    70   35   65 1  
    71   35   66 1  
    72   36   67 1  
    73   37   68 1  
    74   37   69 1  
    75   38   70 1  
    76   38   71 1  
    77   39   72 1  
    78   40   73 1  
    79   40   74 1  
    80   41   75 1  
    81   41   76 1  
    82   42   77 1  
    83   42   78 1  
    84   43   79 1  
    85   44   80 1  
    86   44   81 1  
    87   44   82 1  
    88   45   83 1  
    89   45   84 1  
    90   45   85 1  
    91   46   86 1  
    92   46   87 1  
    93   46   88 1  
@<TRIPOS>SUBSTRUCTURE
     1 HTZ         1

