### 
### Created by X-TOOL on Mon Aug  2 16:16:22 2021
### 

@<TRIPOS>MOLECULE
6q9o_ligand
   69    73     1     0     0
SMALL
GAST_HUCK


@<TRIPOS>ATOM
      1 C2         10.8620    4.1560   15.1310 C.ar      1 HU8         0.1459
      2 C3         10.4070    4.0050   13.8210 C.ar      1 HU8         0.0730
      3 C41        13.9920    5.3730   10.5130 C.ar      1 HU8        -0.0612
      4 C43        13.3910    4.6140    9.5080 C.ar      1 HU8        -0.0612
      5 C45        12.0720    4.8730    9.1330 C.ar      1 HU8         0.0292
      6 C46        11.3420    5.8920    9.7510 C.ar      1 HU8        -0.0192
      7 C49        13.9080    7.2000   12.2790 C.3       1 HU8         0.0710
      8 C52        15.3420    7.5510   12.0970 C.2       1 HU8         0.1870
      9 C56        16.8340    9.5130   11.7810 C.3       1 HU8         0.0447
     10 C57        16.5650   10.9870   11.3920 C.3       1 HU8        -0.0396
     11 C11        10.5850    7.6010   12.5680 C.2       1 HU8         0.1120
     12 C13        10.9950    8.9130   10.9030 C.2       1 HU8         0.1399
     13 C15         9.9890    8.7960   12.8450 C.2       1 HU8         0.0838
     14 C16         9.1150    9.2660   13.9250 C.2       1 HU8         0.1712
     15 C22        11.5080    9.4100    9.5600 C.3       1 HU8         0.0403
     16 C24        10.8800   10.7800    9.1770 C.3       1 HU8        -0.0337
     17 C27        11.3250   11.1670    7.7430 C.3       1 HU8        -0.0504
     18 C30        12.8670   11.2330    7.6530 C.3       1 HU8        -0.0527
     19 F1         10.9510    3.0720   15.9130 F         1 HU8        -0.1829
     20 C4         10.2960    5.1120   12.9820 C.ar      1 HU8        -0.0407
     21 C6         10.6560    6.3750   13.4500 C.ar      1 HU8         0.0059
     22 C7         11.1540    6.5080   14.7530 C.ar      1 HU8        -0.0546
     23 C9         11.2500    5.4030   15.6040 C.ar      1 HU8        -0.0280
     24 N12        11.2140    7.6830   11.3860 N.pl3     1 HU8        -0.1908
     25 N14        10.3010    9.6040   11.7130 N.2       1 HU8        -0.3101
     26 N17         8.5230    8.4600   14.7610 N.2       1 HU8        -0.2219
     27 N19         7.7610    9.2340   15.5390 N.2       1 HU8        -0.1475
     28 N20         7.8750   10.4930   15.1250 N.2       1 HU8        -0.0712
     29 N21         8.7540   10.5000   14.0280 N.pl3     1 HU8        -0.1583
     30 C33        13.4990    9.8840    8.0660 C.3       1 HU8        -0.0504
     31 C36        13.0600    9.4850    9.4970 C.3       1 HU8        -0.0337
     32 C39        11.9490    6.6640   10.7700 C.ar      1 HU8         0.1056
     33 C40        13.2680    6.3930   11.1590 C.ar      1 HU8         0.0115
     34 CL1        11.3170    3.8750    7.9310 Cl        1 HU8        -0.0786
     35 O53        16.2170    6.6910   12.1470 O.2       1 HU8        -0.3943
     36 N54        15.5280    8.8580   11.8870 N.am      1 HU8        -0.2802
     37 C61        17.4930    9.4950   13.1930 C.3       1 HU8        -0.0396
     38 C65        17.7580    8.8710   10.7130 C.3       1 HU8        -0.0396
     39 CL2         9.9460    2.4330   13.2750 Cl        1 HU8        -0.0724
     40 H1         15.0195    5.1766   10.7971 H         1 HU8         0.0542
     41 H2         13.9485    3.8235    9.0188 H         1 HU8         0.0546
     42 H3         10.3189    6.0895    9.4522 H         1 HU8         0.0569
     43 H4         13.3430    8.1382   12.3821 H         1 HU8         0.0648
     44 H5         13.8204    6.6153   13.2066 H         1 HU8         0.0648
     45 H6         17.5215   11.5224   11.3002 H         1 HU8         0.0254
     46 H7         15.9504   11.4650   12.1690 H         1 HU8         0.0254
     47 H8         16.0320   11.0211   10.4304 H         1 HU8         0.0254
     48 H9         11.1875    8.6784    8.8037 H         1 HU8         0.0546
     49 H10        11.2177   11.5498    9.8864 H         1 HU8         0.0296
     50 H11         9.7832   10.7040    9.2130 H         1 HU8         0.0296
     51 H12        10.9052   12.1510    7.4870 H         1 HU8         0.0267
     52 H13        10.9531   10.4137    7.0330 H         1 HU8         0.0267
     53 H14        13.2340   12.0236    8.3240 H         1 HU8         0.0265
     54 H15        13.1583   11.4659    6.6182 H         1 HU8         0.0265
     55 H16         9.9308    4.9915   11.9685 H         1 HU8         0.0609
     56 H17        11.4697    7.4828   15.1066 H         1 HU8         0.0604
     57 H18        11.6210    5.5175   16.6161 H         1 HU8         0.0603
     58 H19         9.0412   11.2995   13.4456 H         1 HU8         0.2669
     59 H20        14.5948    9.9756    8.0375 H         1 HU8         0.0267
     60 H21        13.1777    9.1042    7.3599 H         1 HU8         0.0267
     61 H22        13.4854    8.5028    9.7507 H         1 HU8         0.0296
     62 H23        13.4204   10.2370   10.2143 H         1 HU8         0.0296
     63 H24        14.7142    9.4319   11.7954 H         1 HU8         0.1858
     64 H25        17.6936    8.4552   13.4907 H         1 HU8         0.0254
     65 H26        16.8124    9.9601   13.9213 H         1 HU8         0.0254
     66 H27        18.4382   10.0569   13.1637 H         1 HU8         0.0254
     67 H28        17.9549    7.8225   10.9811 H         1 HU8         0.0254
     68 H29        18.7083    9.4233   10.6706 H         1 HU8         0.0254
     69 H30        17.2659    8.9119    9.7301 H         1 HU8         0.0254
@<TRIPOS>BOND
     1    2    1 ar 
     2    1   19 1  
     3   23    1 ar 
     4   20    2 ar 
     5    2   39 1  
     6    4    3 ar 
     7    3   33 ar 
     8    5    4 ar 
     9    6    5 ar 
    10    5   34 1  
    11   32    6 ar 
    12    7    8 1  
    13   33    7 1  
    14    8   35 2  
    15    8   36 am 
    16    9   10 1  
    17   36    9 1  
    18    9   37 1  
    19    9   38 1  
    20   11   13 2  
    21   11   21 1  
    22   24   11 1  
    23   12   15 1  
    24   24   12 1  
    25   12   25 2  
    26   13   14 1  
    27   25   13 1  
    28   14   26 2  
    29   14   29 1  
    30   15   16 1  
    31   15   31 1  
    32   16   17 1  
    33   17   18 1  
    34   18   30 1  
    35   21   20 ar 
    36   21   22 ar 
    37   22   23 ar 
    38   24   32 1  
    39   26   27 1  
    40   27   28 2  
    41   28   29 1  
    42   30   31 1  
    43   32   33 ar 
    44    3   40 1  
    45    4   41 1  
    46    6   42 1  
    47    7   43 1  
    48    7   44 1  
    49   10   45 1  
    50   10   46 1  
    51   10   47 1  
    52   15   48 1  
    53   16   49 1  
    54   16   50 1  
    55   17   51 1  
    56   17   52 1  
    57   18   53 1  
    58   18   54 1  
    59   20   55 1  
    60   22   56 1  
    61   23   57 1  
    62   29   58 1  
    63   30   59 1  
    64   30   60 1  
    65   31   61 1  
    66   31   62 1  
    67   36   63 1  
    68   37   64 1  
    69   37   65 1  
    70   37   66 1  
    71   38   67 1  
    72   38   68 1  
    73   38   69 1  
@<TRIPOS>SUBSTRUCTURE
     1 HU8         1

