### 
### Created by X-TOOL on Mon Aug  2 16:11:28 2021
### 

@<TRIPOS>MOLECULE
6q9q_ligand
   91    97     1     0     0
SMALL
GAST_HUCK


@<TRIPOS>ATOM
      1 C2         38.5070    1.6220   16.3510 C.ar      1 HUE         0.0289
      2 C3         38.2300    1.0330   17.5870 C.ar      1 HUE        -0.0254
      3 C41        40.5310   -2.3180   14.4560 C.ar      1 HUE        -0.0545
      4 C43        41.1450   -1.6790   15.5380 C.ar      1 HUE         0.0330
      5 C44        40.8170   -2.0190   16.8540 C.ar      1 HUE        -0.0545
      6 C46        39.8690   -3.0170   17.0940 C.ar      1 HUE        -0.0568
      7 C49        36.2660   -3.1620   19.0610 C.2       1 HUE         0.2279
      8 C53        34.9490   -5.2470   19.3730 C.3       1 HUE         0.0700
      9 C56        34.3840   -6.2890   18.3720 C.3       1 HUE        -0.0110
     10 C60        33.1790   -6.3470   16.1630 C.3       1 HUE         0.0095
     11 C11        37.6170   -0.2760   15.1150 C.ar      1 HUE        -0.0686
     12 C13        38.2070    0.9900   15.1280 C.ar      1 HUE        -0.0616
     13 C15        36.2920   -3.1760   15.8340 C.2       1 HUE         0.0854
     14 C17        36.3770   -5.0050   14.7100 C.2       1 HUE         0.1014
     15 C20        35.2430   -3.1450   14.9780 C.2       1 HUE         0.0297
     16 C21        34.1250   -2.1630   14.7180 C.ar      1 HUE        -0.0299
     17 C22        33.6430   -1.2860   15.7090 C.ar      1 HUE        -0.0626
     18 C24        32.5920   -0.3980   15.4110 C.ar      1 HUE        -0.0677
     19 C26        32.0300   -0.4030   14.1290 C.ar      1 HUE        -0.0676
     20 C28        32.5070   -1.2750   13.1400 C.ar      1 HUE        -0.0677
     21 C30        33.5510   -2.1540   13.4350 C.ar      1 HUE        -0.0626
     22 CL1        39.2430    3.1950   16.3550 Cl        1 HUE        -0.0771
     23 C5         37.6420   -0.2280   17.5480 C.ar      1 HUE         0.0712
     24 N6         37.2840   -1.0040   18.5740 N.pl3     1 HUE        -0.2643
     25 C8         36.7510   -2.1190   18.1540 C.2       1 HUE         0.1460
     26 C9         36.7210   -2.1460   16.8020 C.2       1 HUE         0.0356
     27 C10        37.3450   -0.8570   16.3520 C.ar      1 HUE        -0.0037
     28 N16        36.9610   -4.3160   15.6490 N.pl3     1 HUE        -0.2292
     29 N19        35.3730   -4.3910   14.2900 N.2       1 HUE        -0.3181
     30 C32        38.1970   -4.7340   16.3430 C.3       1 HUE         0.1002
     31 C34        38.6020   -6.2110   16.0620 C.3       1 HUE        -0.0239
     32 C38        39.2520   -3.6680   16.0160 C.ar      1 HUE        -0.0096
     33 C39        39.5790   -3.3070   14.6990 C.ar      1 HUE        -0.0568
     34 CL2        42.3340   -0.4380   15.2540 Cl        1 HUE        -0.0771
     35 O50        36.6090   -3.0550   20.2330 O.2       1 HUE        -0.3852
     36 N51        35.4850   -4.1500   18.5750 N.am      1 HUE        -0.2802
     37 N59        33.3600   -5.6720   17.4790 N.4       1 HUE         0.2441
     38 C63        32.1500   -5.6250   15.2460 C.3       1 HUE         0.0097
     39 N66        30.8990   -5.2580   15.9760 N.4       1 HUE         0.2448
     40 C67        31.1790   -4.5910   17.2700 C.3       1 HUE         0.0097
     41 C70        32.0580   -5.4870   18.1600 C.3       1 HUE         0.0095
     42 C73        29.7460   -4.5630   15.3120 C.3       1 HUE        -0.0205
     43 C75        30.1880   -3.8090   14.0200 C.3       1 HUE        -0.0096
     44 C78        29.0650   -2.8440   13.5420 C.3       1 HUE        -0.0480
     45 C81        27.6910   -3.5600   13.3820 C.3       1 HUE        -0.0527
     46 C84        27.3250   -4.4800   14.5830 C.3       1 HUE        -0.0480
     47 C87        28.4920   -5.4300   14.9730 C.3       1 HUE        -0.0096
     48 H1         38.4598    1.5295   18.5228 H         1 HUE         0.0558
     49 H2         40.7925   -2.0472   13.4395 H         1 HUE         0.0606
     50 H3         41.2956   -1.5111   17.6835 H         1 HUE         0.0606
     51 H4         39.6110   -3.2875   18.1115 H         1 HUE         0.0558
     52 H5         35.7465   -5.6987   19.9812 H         1 HUE         0.0572
     53 H6         34.1480   -4.8807   20.0320 H         1 HUE         0.0572
     54 H7         33.9212   -7.1136   18.9340 H         1 HUE         0.0834
     55 H8         35.2078   -6.6810   17.7575 H         1 HUE         0.0834
     56 H9         32.8292   -7.3745   16.3412 H         1 HUE         0.0868
     57 H10        34.1499   -6.3745   15.6466 H         1 HUE         0.0868
     58 H11        37.3817   -0.7828   14.1861 H         1 HUE         0.0564
     59 H12        38.4351    1.4885   14.1929 H         1 HUE         0.0530
     60 H13        36.7144   -5.9739   14.3448 H         1 HUE         0.1240
     61 H14        34.0810   -1.2947   16.7005 H         1 HUE         0.0569
     62 H15        32.2212    0.2837   16.1678 H         1 HUE         0.0601
     63 H16        31.2165    0.2752   13.8981 H         1 HUE         0.0568
     64 H17        32.0666   -1.2668   12.1495 H         1 HUE         0.0601
     65 H18        33.9197   -2.8310   12.6729 H         1 HUE         0.0569
     66 H19        37.4115   -0.7556   19.5654 H         1 HUE         0.2279
     67 H20        38.0063   -4.6789   17.4249 H         1 HUE         0.0818
     68 H21        39.5261   -6.4483   16.6094 H         1 HUE         0.0282
     69 H22        38.7698   -6.3463   14.9833 H         1 HUE         0.0282
     70 H23        37.7962   -6.8818   16.3948 H         1 HUE         0.0282
     71 H24        39.0888   -3.7998   13.8672 H         1 HUE         0.0558
     72 H25        35.2584   -4.1283   17.6012 H         1 HUE         0.1841
     73 H26        33.7052   -4.7485   17.2694 H         1 HUE         0.2038
     74 H27        31.8896   -6.2932   14.4119 H         1 HUE         0.0868
     75 H28        32.6109   -4.7077   14.8509 H         1 HUE         0.0868
     76 H29        30.5154   -6.1580   16.2189 H         1 HUE         0.2040
     77 H30        30.2288   -4.3892   17.7861 H         1 HUE         0.0868
     78 H31        31.7030   -3.6423   17.0821 H         1 HUE         0.0868
     79 H32        32.2127   -5.0058   19.1370 H         1 HUE         0.0868
     80 H33        31.5705   -6.4624   18.3048 H         1 HUE         0.0868
     81 H34        29.4070   -3.8035   16.0318 H         1 HUE         0.0851
     82 H35        30.3976   -4.5418   13.2268 H         1 HUE         0.0320
     83 H36        31.0978   -3.2286   14.2328 H         1 HUE         0.0320
     84 H37        29.3559   -2.4180   12.5705 H         1 HUE         0.0267
     85 H38        28.9574   -2.0351   14.2797 H         1 HUE         0.0267
     86 H39        27.7230   -4.1745   12.4702 H         1 HUE         0.0265
     87 H40        26.9089   -2.7932   13.2802 H         1 HUE         0.0265
     88 H41        26.4499   -5.0879   14.3096 H         1 HUE         0.0267
     89 H42        27.0772   -3.8494   15.4495 H         1 HUE         0.0267
     90 H43        28.2060   -6.0277   15.8510 H         1 HUE         0.0320
     91 H44        28.7212   -6.1006   14.1317 H         1 HUE         0.0320
@<TRIPOS>BOND
     1    2    1 ar 
     2   12    1 ar 
     3    1   22 1  
     4   23    2 ar 
     5    4    3 ar 
     6    3   33 ar 
     7    5    4 ar 
     8    4   34 1  
     9    6    5 ar 
    10   32    6 ar 
    11   25    7 1  
    12    7   35 2  
    13    7   36 am 
    14    8    9 1  
    15   36    8 1  
    16    9   37 1  
    17   37   10 1  
    18   10   38 1  
    19   11   12 ar 
    20   27   11 ar 
    21   13   15 2  
    22   13   26 1  
    23   28   13 1  
    24   28   14 1  
    25   14   29 2  
    26   15   16 1  
    27   29   15 1  
    28   16   17 ar 
    29   16   21 ar 
    30   17   18 ar 
    31   18   19 ar 
    32   20   19 ar 
    33   21   20 ar 
    34   23   24 1  
    35   27   23 ar 
    36   25   24 1  
    37   26   25 2  
    38   26   27 1  
    39   30   28 1  
    40   30   31 1  
    41   30   32 1  
    42   32   33 ar 
    43   37   41 1  
    44   38   39 1  
    45   39   40 1  
    46   39   42 1  
    47   40   41 1  
    48   42   43 1  
    49   42   47 1  
    50   43   44 1  
    51   44   45 1  
    52   45   46 1  
    53   46   47 1  
    54    2   48 1  
    55    3   49 1  
    56    5   50 1  
    57    6   51 1  
    58    8   52 1  
    59    8   53 1  
    60    9   54 1  
    61    9   55 1  
    62   10   56 1  
    63   10   57 1  
    64   11   58 1  
    65   12   59 1  
    66   14   60 1  
    67   17   61 1  
    68   18   62 1  
    69   19   63 1  
    70   20   64 1  
    71   21   65 1  
    72   24   66 1  
    73   30   67 1  
    74   31   68 1  
    75   31   69 1  
    76   31   70 1  
    77   33   71 1  
    78   36   72 1  
    79   37   73 1  
    80   38   74 1  
    81   38   75 1  
    82   39   76 1  
    83   40   77 1  
    84   40   78 1  
    85   41   79 1  
    86   41   80 1  
    87   42   81 1  
    88   43   82 1  
    89   43   83 1  
    90   44   84 1  
    91   44   85 1  
    92   45   86 1  
    93   45   87 1  
    94   46   88 1  
    95   46   89 1  
    96   47   90 1  
    97   47   91 1  
@<TRIPOS>SUBSTRUCTURE
     1 HUE         1

