### 
### Created by X-TOOL on Mon Aug  2 16:12:07 2021
### 

@<TRIPOS>MOLECULE
6q9s_ligand
   92    99     1     0     0
SMALL
GAST_HUCK


@<TRIPOS>ATOM
      1 C2         51.0620  -18.8250  -75.3860 C.ar      1 HRN         0.0448
      2 C3         50.6050  -19.8110  -74.5000 C.ar      1 HRN         0.0045
      3 C42        53.4910  -25.4360  -78.0960 C.ar      1 HRN        -0.0746
      4 C44        53.4100  -24.0870  -78.4710 C.ar      1 HRN        -0.0170
      5 C45        53.5460  -23.0900  -77.4950 C.ar      1 HRN        -0.0380
      6 C47        53.1500  -23.6990  -79.9110 C.2       1 HRN         0.0508
      7 C52        55.4720  -25.4170  -74.0910 C.3       1 HRN         0.0270
      8 C55        55.6860  -25.6080  -72.5730 C.3       1 HRN        -0.0102
      9 C58        54.5880  -26.5430  -72.0160 C.3       1 HRN         0.0505
     10 C60        53.1970  -25.8930  -72.2550 C.3       1 HRN        -0.0102
     11 C12        50.9810  -21.2800  -74.7460 C.3       1 HRN         0.1008
     12 C15        50.7560  -22.8500  -72.8660 C.2       1 HRN         0.1014
     13 C18        52.4440  -22.2230  -71.6040 C.2       1 HRN         0.0297
     14 C19        52.4130  -21.4760  -72.7210 C.2       1 HRN         0.0854
     15 C20        53.3260  -20.3800  -73.1010 C.2       1 HRN         0.0360
     16 C21        54.2140  -20.2410  -74.1190 C.2       1 HRN         0.1516
     17 C24        54.3010  -18.3540  -73.0010 C.ar      1 HRN         0.0712
     18 C25        53.3670  -19.1030  -72.3120 C.ar      1 HRN        -0.0037
     19 C26        52.7270  -18.6380  -71.1580 C.ar      1 HRN        -0.0686
     20 C28        53.0730  -17.3540  -70.7240 C.ar      1 HRN        -0.0616
     21 C30        54.0130  -16.5760  -71.4270 C.ar      1 HRN         0.0289
     22 CL1        52.0060  -19.2300  -76.8060 Cl        1 HRN        -0.0770
     23 C4         49.8530  -19.4410  -73.3730 C.ar      1 HRN        -0.0561
     24 C6         49.5340  -18.1010  -73.1550 C.ar      1 HRN        -0.0543
     25 C8         49.9790  -17.1360  -74.0620 C.ar      1 HRN         0.0335
     26 C9         50.7450  -17.4890  -75.1740 C.ar      1 HRN        -0.0405
     27 CL2        49.5890  -15.4550  -73.8110 Cl        1 HRN        -0.0770
     28 N14        51.3820  -21.8720  -73.4580 N.pl3     1 HRN        -0.2291
     29 N17        51.3290  -23.1060  -71.7960 N.2       1 HRN        -0.3181
     30 N22        54.7400  -19.0490  -74.0630 N.pl3     1 HRN        -0.2639
     31 C31        54.6520  -17.0670  -72.5840 C.ar      1 HRN        -0.0255
     32 CL3        54.4100  -14.9620  -70.8610 Cl        1 HRN        -0.0771
     33 C34        54.4610  -21.1940  -75.2270 C.2       1 HRN         0.2518
     34 O35        55.1180  -20.8050  -76.1820 O.2       1 HRN        -0.3757
     35 N36        53.8580  -22.3980  -75.1910 N.am      1 HRN        -0.2360
     36 C38        53.8010  -23.4180  -76.1550 C.ar      1 HRN         0.0892
     37 C39        53.8440  -24.7510  -75.7820 C.ar      1 HRN         0.0671
     38 C40        53.7160  -25.7690  -76.7490 C.ar      1 HRN        -0.0527
     39 O48        53.2230  -22.5290  -80.2400 O.co2     1 HRN        -0.5643
     40 O49        52.7930  -24.6410  -80.7910 O.co2     1 HRN        -0.5643
     41 N51        54.0670  -25.0560  -74.4330 N.pl3     1 HRN        -0.3119
     42 C63        52.9510  -25.7850  -73.7740 C.3       1 HRN         0.0270
     43 N66        54.8710  -26.8370  -70.6060 N.am      1 HRN        -0.2457
     44 C67        54.5850  -25.8710  -69.5290 C.3       1 HRN         0.0385
     45 C70        55.1840  -26.2450  -68.1580 C.3       1 HRN        -0.0047
     46 C73        55.0020  -27.7620  -67.9990 C.3       1 HRN         0.0791
     47 O76        55.6930  -28.4640  -69.0550 O.3       1 HRN        -0.2637
     48 C77        55.3980  -28.0680  -70.3140 C.2       1 HRN         0.3223
     49 O78        55.6260  -28.8950  -71.1920 O.2       1 HRN        -0.3774
     50 C79        53.3660  -22.3240  -70.4080 C.ar      1 HRN        -0.0299
     51 C80        52.8210  -22.7620  -69.1940 C.ar      1 HRN        -0.0626
     52 C82        53.6300  -22.9030  -68.0540 C.ar      1 HRN        -0.0677
     53 C84        55.0030  -22.6240  -68.1280 C.ar      1 HRN        -0.0676
     54 C86        55.5590  -22.2040  -69.3460 C.ar      1 HRN        -0.0677
     55 C88        54.7490  -22.0590  -70.4850 C.ar      1 HRN        -0.0626
     56 C90        49.8900  -22.0530  -75.5140 C.3       1 HRN        -0.0238
     57 H1         53.3808  -26.2167  -78.8400 H         1 HRN         0.0491
     58 H2         53.4526  -22.0484  -77.7804 H         1 HRN         0.0490
     59 H3         55.7287  -26.3559  -74.6035 H         1 HRN         0.0511
     60 H4         56.1369  -24.6140  -74.4418 H         1 HRN         0.0511
     61 H5         55.6286  -24.6324  -72.0682 H         1 HRN         0.0306
     62 H6         56.6749  -26.0556  -72.3947 H         1 HRN         0.0306
     63 H7         54.6166  -27.4926  -72.5705 H         1 HRN         0.0559
     64 H8         53.1761  -24.8894  -71.8052 H         1 HRN         0.0306
     65 H9         52.4145  -26.5163  -71.7976 H         1 HRN         0.0306
     66 H10        51.8709  -21.2882  -75.3926 H         1 HRN         0.0820
     67 H11        49.8730  -23.3598  -73.2487 H         1 HRN         0.1240
     68 H12        52.0000  -19.2420  -70.6272 H         1 HRN         0.0563
     69 H13        52.6094  -16.9508  -69.8309 H         1 HRN         0.0530
     70 H14        49.5202  -20.1978  -72.6719 H         1 HRN         0.0558
     71 H15        48.9470  -17.8112  -72.2910 H         1 HRN         0.0607
     72 H16        51.0892  -16.7284  -75.8654 H         1 HRN         0.0612
     73 H17        55.4128  -18.6836  -74.7520 H         1 HRN         0.2278
     74 H18        55.3811  -16.4743  -73.1246 H         1 HRN         0.0558
     75 H19        53.3722  -22.5980  -74.3401 H         1 HRN         0.2211
     76 H20        53.7912  -26.8092  -76.4535 H         1 HRN         0.0476
     77 H21        52.0105  -25.2426  -73.9505 H         1 HRN         0.0511
     78 H22        52.8771  -26.7959  -74.2013 H         1 HRN         0.0511
     79 H23        53.4934  -25.7942  -69.4174 H         1 HRN         0.0522
     80 H24        54.9928  -24.8938  -69.8269 H         1 HRN         0.0522
     81 H25        54.6541  -25.7129  -67.3543 H         1 HRN         0.0310
     82 H26        56.2525  -25.9856  -68.1271 H         1 HRN         0.0310
     83 H27        53.9301  -28.0053  -68.0427 H         1 HRN         0.0612
     84 H28        55.4100  -28.0764  -67.0271 H         1 HRN         0.0612
     85 H29        51.7640  -22.9946  -69.1336 H         1 HRN         0.0569
     86 H30        53.1930  -23.2276  -67.1166 H         1 HRN         0.0601
     87 H31        55.6300  -22.7321  -67.2503 H         1 HRN         0.0568
     88 H32        56.6198  -21.9901  -69.4086 H         1 HRN         0.0601
     89 H33        55.1879  -21.7429  -71.4244 H         1 HRN         0.0569
     90 H34        49.6646  -21.5308  -76.4555 H         1 HRN         0.0282
     91 H35        48.9795  -22.1101  -74.8994 H         1 HRN         0.0282
     92 H36        50.2476  -23.0695  -75.7351 H         1 HRN         0.0282
@<TRIPOS>BOND
     1    2    1 ar 
     2    1   22 1  
     3    1   26 ar 
     4   11    2 1  
     5    2   23 ar 
     6    3    4 ar 
     7   38    3 ar 
     8    5    4 ar 
     9    4    6 1  
    10   36    5 ar 
    11    6   39 ar 
    12    6   40 ar 
    13    7    8 1  
    14   41    7 1  
    15    8    9 1  
    16    9   10 1  
    17    9   43 1  
    18   10   42 1  
    19   28   11 1  
    20   11   56 1  
    21   28   12 1  
    22   12   29 2  
    23   14   13 2  
    24   13   29 1  
    25   13   50 1  
    26   15   14 1  
    27   14   28 1  
    28   16   15 2  
    29   15   18 1  
    30   16   30 1  
    31   33   16 1  
    32   17   18 ar 
    33   30   17 1  
    34   17   31 ar 
    35   18   19 ar 
    36   19   20 ar 
    37   21   20 ar 
    38   31   21 ar 
    39   21   32 1  
    40   23   24 ar 
    41   24   25 ar 
    42   26   25 ar 
    43   25   27 1  
    44   33   34 2  
    45   35   33 am 
    46   36   35 1  
    47   37   36 ar 
    48   37   38 ar 
    49   37   41 1  
    50   41   42 1  
    51   43   44 1  
    52   43   48 am 
    53   44   45 1  
    54   45   46 1  
    55   46   47 1  
    56   47   48 1  
    57   48   49 2  
    58   50   51 ar 
    59   50   55 ar 
    60   51   52 ar 
    61   52   53 ar 
    62   53   54 ar 
    63   54   55 ar 
    64    3   57 1  
    65    5   58 1  
    66    7   59 1  
    67    7   60 1  
    68    8   61 1  
    69    8   62 1  
    70    9   63 1  
    71   10   64 1  
    72   10   65 1  
    73   11   66 1  
    74   12   67 1  
    75   19   68 1  
    76   20   69 1  
    77   23   70 1  
    78   24   71 1  
    79   26   72 1  
    80   30   73 1  
    81   31   74 1  
    82   35   75 1  
    83   38   76 1  
    84   42   77 1  
    85   42   78 1  
    86   44   79 1  
    87   44   80 1  
    88   45   81 1  
    89   45   82 1  
    90   46   83 1  
    91   46   84 1  
    92   51   85 1  
    93   52   86 1  
    94   53   87 1  
    95   54   88 1  
    96   55   89 1  
    97   56   90 1  
    98   56   91 1  
    99   56   92 1  
@<TRIPOS>SUBSTRUCTURE
     1 HRN         1

