### 
### Created by X-TOOL on Mon Aug  2 16:11:28 2021
### 

@<TRIPOS>MOLECULE
6q9u_ligand
   64    68     1     0     0
SMALL
GAST_HUCK


@<TRIPOS>ATOM
      1 C1         -9.6170    1.6470    2.5020 C.ar      1 HRE         0.0396
      2 C3        -11.9180    1.9760    2.1690 C.ar      1 HRE         0.1733
      3 C11        -7.0570   -1.0550   -0.2700 C.3       1 HRE        -0.0508
      4 C12        -9.2210   -2.3880    0.2120 C.3       1 HRE        -0.0508
      5 C14       -12.5160   -2.1820    2.3030 C.3       1 HRE         0.0648
      6 C16       -14.2440    2.3270    1.5150 C.3       1 HRE         0.0208
      7 C17        -7.0570   -1.7390    2.7940 C.2       1 HRE         0.0317
      8 C18        -7.2580   -1.3680    4.1480 C.2       1 HRE         0.1096
      9 C19        -6.2290   -1.9910    4.9480 C.2       1 HRE         0.2366
     10 C21        -5.8540   -2.6430    2.6870 C.3       1 HRE         0.1203
     11 C23        -6.2960   -4.0570    2.2910 C.ar      1 HRE         0.0013
     12 C24        -5.8880   -4.6690    1.0900 C.ar      1 HRE        -0.0452
     13 C25        -7.1260   -6.6680    1.7160 C.ar      1 HRE         0.0880
     14 C26        -7.5200   -6.0660    2.9170 C.ar      1 HRE        -0.0335
     15 C27        -6.3140   -5.9790    0.7990 C.ar      1 HRE        -0.0335
     16 C28        -7.1000   -4.7670    3.1980 C.ar      1 HRE        -0.0452
     17 C29       -12.7180    4.2840    1.9250 C.3       1 HRE         0.0208
     18 C30        -7.5950   -8.0040    1.4760 C.1       1 HRE         0.0930
     19 N2        -10.6610    2.4480    2.2320 N.ar      1 HRE        -0.2750
     20 N4        -12.1430    0.6550    2.3860 N.ar      1 HRE        -0.2330
     21 C5        -11.1360   -0.2090    2.6560 C.ar      1 HRE         0.2071
     22 C6         -9.8320    0.2920    2.7220 C.ar      1 HRE         0.1787
     23 N7         -8.7560   -0.4740    2.9900 N.pl3     1 HRE        -0.1594
     24 N8         -8.2610   -0.6190    4.2340 N.2       1 HRE        -0.1985
     25 C9         -8.0370   -1.1270    2.1010 C.2       1 HRE         0.0914
     26 C10        -8.3220   -1.1880    0.6070 C.3       1 HRE         0.0132
     27 O13       -11.3560   -1.5690    2.8870 O.3       1 HRE        -0.2964
     28 N15       -12.9320    2.8340    1.8850 N.pl3     1 HRE        -0.2873
     29 N20        -5.4120   -2.7100    4.1110 N.am      1 HRE        -0.2004
     30 O22        -6.1960   -1.8200    6.1510 O.2       1 HRE        -0.3766
     31 N31        -7.9780   -9.0780    1.2930 N.1       1 HRE        -0.3341
     32 C32        -4.3090   -3.4360    4.5180 C.2       1 HRE         0.1327
     33 C33        -2.9320   -3.3630    3.9090 C.2       1 HRE         0.2358
     34 C34        -2.0480   -4.9120    5.4970 C.2       1 HRE         0.0508
     35 C35        -3.2440   -5.0160    6.0750 C.2       1 HRE         0.0285
     36 N36        -1.9120   -4.1000    4.4270 N.am      1 HRE        -0.2331
     37 C37        -4.3920   -4.2570    5.5750 C.2       1 HRE        -0.0488
     38 O38        -2.6750   -2.6630    2.9370 O.2       1 HRE        -0.4118
     39 CL         -3.4940   -6.0210    7.4770 Cl        1 HRE        -0.1066
     40 H1         -8.6137    2.0549    2.5479 H         1 HRE         0.0816
     41 H2         -7.3397   -1.1078   -1.3317 H         1 HRE         0.0255
     42 H3         -6.3602   -1.8731   -0.0350 H         1 HRE         0.0255
     43 H4         -6.5704   -0.0894   -0.0678 H         1 HRE         0.0255
     44 H5        -10.0987   -2.4221    0.8741 H         1 HRE         0.0255
     45 H6         -8.6498   -3.3227    0.3120 H         1 HRE         0.0255
     46 H7         -9.5523   -2.2705   -0.8303 H         1 HRE         0.0255
     47 H8        -12.5450   -3.2470    2.5768 H         1 HRE         0.0587
     48 H9        -12.4695   -2.0861    1.2082 H         1 HRE         0.0587
     49 H10       -13.4220   -1.6826    2.6767 H         1 HRE         0.0587
     50 H11       -14.9231    3.1712    1.3252 H         1 HRE         0.0488
     51 H12       -14.6439    1.7118    2.3345 H         1 HRE         0.0488
     52 H13       -14.1573    1.7146    0.6054 H         1 HRE         0.0488
     53 H14        -5.0839   -2.2510    2.0064 H         1 HRE         0.0883
     54 H15        -5.2505   -4.1352    0.3945 H         1 HRE         0.0584
     55 H16        -8.1448   -6.6042    3.6206 H         1 HRE         0.0701
     56 H17        -6.0168   -6.4543   -0.1288 H         1 HRE         0.0701
     57 H18        -7.3978   -4.2984    4.1290 H         1 HRE         0.0584
     58 H19       -11.6794    4.4933    2.2208 H         1 HRE         0.0488
     59 H20       -13.4053    4.7361    2.6552 H         1 HRE         0.0488
     60 H21       -12.9086    4.7104    0.9291 H         1 HRE         0.0488
     61 H22        -8.9205   -0.2913    0.3887 H         1 HRE         0.0478
     62 H23        -1.1961   -5.4715    5.8805 H         1 HRE         0.1006
     63 H24        -1.0138   -4.0368    3.9919 H         1 HRE         0.2476
     64 H25        -5.3504   -4.3634    6.0811 H         1 HRE         0.0376
@<TRIPOS>BOND
     1    1   19 ar 
     2   22    1 ar 
     3   19    2 ar 
     4   20    2 ar 
     5    2   28 1  
     6   26    3 1  
     7   26    4 1  
     8   27    5 1  
     9   28    6 1  
    10    7    8 1  
    11   10    7 1  
    12    7   25 2  
    13    9    8 1  
    14    8   24 2  
    15   29    9 am 
    16    9   30 2  
    17   10   11 1  
    18   29   10 1  
    19   11   12 ar 
    20   11   16 ar 
    21   12   15 ar 
    22   14   13 ar 
    23   15   13 ar 
    24   13   18 1  
    25   16   14 ar 
    26   28   17 1  
    27   18   31 3  
    28   21   20 ar 
    29   22   21 ar 
    30   21   27 1  
    31   23   22 1  
    32   24   23 1  
    33   25   23 1  
    34   25   26 1  
    35   32   29 1  
    36   33   32 1  
    37   32   37 2  
    38   36   33 am 
    39   33   38 2  
    40   34   35 2  
    41   34   36 1  
    42   35   37 1  
    43   35   39 1  
    44    1   40 1  
    45    3   41 1  
    46    3   42 1  
    47    3   43 1  
    48    4   44 1  
    49    4   45 1  
    50    4   46 1  
    51    5   47 1  
    52    5   48 1  
    53    5   49 1  
    54    6   50 1  
    55    6   51 1  
    56    6   52 1  
    57   10   53 1  
    58   12   54 1  
    59   14   55 1  
    60   15   56 1  
    61   16   57 1  
    62   17   58 1  
    63   17   59 1  
    64   17   60 1  
    65   26   61 1  
    66   34   62 1  
    67   36   63 1  
    68   37   64 1  
@<TRIPOS>SUBSTRUCTURE
     1 HRE         1

