### 
### Created by X-TOOL on Mon Aug  2 16:16:27 2021
### 

@<TRIPOS>MOLECULE
6q9y_ligand
   49    52     1     0     0
SMALL
GAST_HUCK


@<TRIPOS>ATOM
      1 C1         -9.7650   11.0330  -17.2820 C.ar      1 HRQ        -0.0891
      2 C2        -10.5490   12.1730  -17.1500 C.ar      1 HRQ        -0.0477
      3 C3        -10.4110   13.0200  -16.0440 C.ar      1 HRQ         0.1124
      4 C11       -12.0410   14.6040  -16.8820 C.3       1 HRQ         0.0579
      5 C12        -6.8410   10.5220  -13.5990 C.2       1 HRQ         0.1782
      6 C15        -5.2660    8.8070  -14.3430 C.3       1 HRQ         0.0617
      7 C16        -3.8150    9.2560  -14.1060 C.3       1 HRQ         0.0483
      8 C18        -3.8600    7.1020  -15.2550 C.3       1 HRQ         0.0277
      9 C19        -5.1470    7.8750  -15.5620 C.3       1 HRQ        -0.0087
     10 C20        -1.8930    7.6870  -13.8800 C.ar      1 HRQ         0.0335
     11 C21        -1.3660    6.3880  -14.0500 C.ar      1 HRQ        -0.0506
     12 C22        -0.1860    5.9990  -13.4190 C.ar      1 HRQ        -0.0719
     13 C23         0.5210    6.8790  -12.6060 C.ar      1 HRQ        -0.0589
     14 C24         0.0120    8.1600  -12.4280 C.ar      1 HRQ        -0.0719
     15 C25        -1.1680    8.5680  -13.0530 C.ar      1 HRQ        -0.0506
     16 C26         1.8250    6.4290  -11.9360 C.3       1 HRQ        -0.0372
     17 C4         -8.8190   10.7060  -16.3130 C.ar      1 HRQ        -0.0857
     18 C5         -8.6620   11.5460  -15.2040 C.ar      1 HRQ        -0.0165
     19 C6         -9.4510   12.6870  -15.0790 C.ar      1 HRQ         0.1011
     20 N7         -9.1690   13.3270  -13.9000 N.pl3     1 HRQ        -0.2720
     21 C8         -8.2220   12.6450  -13.2500 C.2       1 HRQ         0.0473
     22 C9         -7.8300   11.5510  -13.9550 C.2       1 HRQ         0.0468
     23 O10       -11.1380   14.1810  -15.8440 O.3       1 HRQ        -0.3241
     24 N13        -6.1970    9.9010  -14.6030 N.am      1 HRQ        -0.2869
     25 O14        -6.6160   10.2470  -12.4170 O.2       1 HRQ        -0.4029
     26 N17        -3.0890    8.0490  -14.4510 N.pl3     1 HRQ        -0.3102
     27 H1         -9.8908   10.3922  -18.1472 H         1 HRQ         0.0488
     28 H2        -11.2789   12.4100  -17.9156 H         1 HRQ         0.0438
     29 H3        -12.5406   15.5351  -16.5763 H         1 HRQ         0.0575
     30 H4        -12.7956   13.8220  -17.0527 H         1 HRQ         0.0575
     31 H5        -11.4770   14.7782  -17.8102 H         1 HRQ         0.0575
     32 H6         -5.6295    8.2483  -13.4680 H         1 HRQ         0.0574
     33 H7         -3.6473    9.5418  -13.0571 H         1 HRQ         0.0533
     34 H8         -3.5396   10.0942  -14.7630 H         1 HRQ         0.0533
     35 H9         -3.3250    6.8422  -16.1803 H         1 HRQ         0.0511
     36 H10        -4.0758    6.1853  -14.6865 H         1 HRQ         0.0511
     37 H11        -5.0540    8.4494  -16.4955 H         1 HRQ         0.0307
     38 H12        -6.0113    7.1983  -15.6324 H         1 HRQ         0.0307
     39 H13        -1.8890    5.6803  -14.6830 H         1 HRQ         0.0499
     40 H14         0.1879    4.9920  -13.5644 H         1 HRQ         0.0525
     41 H15         0.5427    8.8575  -11.7901 H         1 HRQ         0.0525
     42 H16        -1.5318    9.5776  -12.8998 H         1 HRQ         0.0499
     43 H17         2.0380    5.3858  -12.2121 H         1 HRQ         0.0366
     44 H18         1.7213    6.5052  -10.8436 H         1 HRQ         0.0366
     45 H19         2.6510    7.0731  -12.2718 H         1 HRQ         0.0366
     46 H20        -8.2127    9.8133  -16.4163 H         1 HRQ         0.0429
     47 H21        -9.6154   14.1941  -13.5687 H         1 HRQ         0.2303
     48 H22        -7.8163   12.9290  -12.2801 H         1 HRQ         0.1056
     49 H23        -6.3589   10.1941  -15.5453 H         1 HRQ         0.1836
@<TRIPOS>BOND
     1    1    2 ar 
     2   17    1 ar 
     3    3    2 ar 
     4   19    3 ar 
     5    3   23 1  
     6   23    4 1  
     7   22    5 1  
     8    5   24 am 
     9    5   25 2  
    10    6    7 1  
    11    6    9 1  
    12   24    6 1  
    13    7   26 1  
    14    9    8 1  
    15    8   26 1  
    16   10   11 ar 
    17   10   15 ar 
    18   26   10 1  
    19   11   12 ar 
    20   12   13 ar 
    21   14   13 ar 
    22   13   16 1  
    23   15   14 ar 
    24   18   17 ar 
    25   18   19 ar 
    26   18   22 1  
    27   19   20 1  
    28   20   21 1  
    29   21   22 2  
    30    1   27 1  
    31    2   28 1  
    32    4   29 1  
    33    4   30 1  
    34    4   31 1  
    35    6   32 1  
    36    7   33 1  
    37    7   34 1  
    38    8   35 1  
    39    8   36 1  
    40    9   37 1  
    41    9   38 1  
    42   11   39 1  
    43   12   40 1  
    44   14   41 1  
    45   15   42 1  
    46   16   43 1  
    47   16   44 1  
    48   16   45 1  
    49   17   46 1  
    50   20   47 1  
    51   21   48 1  
    52   24   49 1  
@<TRIPOS>SUBSTRUCTURE
     1 HRQ         1

