### 
### Created by X-TOOL on Mon Aug  2 16:16:27 2021
### 

@<TRIPOS>MOLECULE
6qaa_ligand
   66    68     1     0     0
SMALL
GAST_HUCK


@<TRIPOS>ATOM
      1 C10        23.7270   39.8240   43.1570 C.3       1 HUN        -0.0530
      2 C11        22.3560   39.5750   43.8140 C.3       1 HUN        -0.0528
      3 C16        17.6710   41.1730   39.8260 C.2       1 HUN         0.0168
      4 C18        16.2440   39.9720   41.1950 C.ar      1 HUN         0.0603
      5 C19        15.5720   41.1150   40.8090 C.ar      1 HUN        -0.0213
      6 C20        14.2300   41.3710   41.2680 C.ar      1 HUN        -0.0747
      7 C21        13.6270   40.3860   42.1400 C.ar      1 HUN        -0.0792
      8 C25        17.0430   45.4180   37.6900 C.3       1 HUN        -0.0315
      9 C02        18.0010   44.2780   40.8820 C.2       1 HUN         0.2258
     10 C04        19.4690   43.7980   42.8630 C.3       1 HUN         0.0313
     11 C05        19.9670   42.3860   42.4010 C.3       1 HUN        -0.0299
     12 C06        21.2510   41.8380   43.0830 C.3       1 HUN        -0.0392
     13 C07        22.5090   42.2710   42.2750 C.3       1 HUN        -0.0501
     14 C08        23.8160   42.4340   43.1170 C.3       1 HUN        -0.0528
     15 C09        24.4480   41.1270   43.6620 C.3       1 HUN        -0.0530
     16 C12        21.1540   40.2760   43.1180 C.3       1 HUN        -0.0501
     17 C13        16.6890   44.5670   40.0850 C.3       1 HUN         0.0707
     18 C14        16.2110   43.2810   39.2710 C.3       1 HUN         0.0245
     19 C15        16.4420   41.9210   39.9350 C.2       1 HUN        -0.0386
     20 C22        14.3200   39.2050   42.5110 C.ar      1 HUN        -0.0768
     21 C23        15.6600   38.9570   42.0550 C.ar      1 HUN        -0.0443
     22 N03        18.1520   44.0920   42.2750 N.am      1 HUN        -0.2822
     23 N17        17.4960   40.0290   40.5930 N.pl3     1 HUN        -0.2890
     24 N24        16.9490   45.7840   39.1580 N.4       1 HUN         0.2470
     25 O01        19.0730   44.1890   40.1890 O.2       1 HUN        -0.3907
     26 C26        18.3590   45.8250   37.0280 C.3       1 HUN        -0.0128
     27 C27        19.2550   44.5880   36.9430 C.3       1 HUN        -0.0511
     28 C28        20.4990   44.7340   37.7250 C.3       1 HUN        -0.0651
     29 H1         23.5801   39.9086   42.0702 H         1 HUN         0.0265
     30 H2         24.3763   38.9629   43.3734 H         1 HUN         0.0265
     31 H3         22.4054   39.9343   44.8525 H         1 HUN         0.0265
     32 H4         22.1677   38.4913   43.8095 H         1 HUN         0.0265
     33 H5         18.5572   41.4499   39.2569 H         1 HUN         0.0795
     34 H6         13.6939   42.2654   40.9719 H         1 HUN         0.0540
     35 H7         12.6249   40.5541   42.5176 H         1 HUN         0.0510
     36 H8         16.2197   45.9157   37.1566 H         1 HUN         0.0814
     37 H9         16.9331   44.3274   37.5982 H         1 HUN         0.0814
     38 H10        20.1905   44.5618   42.5375 H         1 HUN         0.0520
     39 H11        19.3884   43.8135   43.9599 H         1 HUN         0.0520
     40 H12        20.1615   42.4392   41.3196 H         1 HUN         0.0287
     41 H13        19.1561   41.6680   42.5929 H         1 HUN         0.0287
     42 H14        21.3230   42.2294   44.1085 H         1 HUN         0.0301
     43 H15        22.2901   43.2366   41.7957 H         1 HUN         0.0268
     44 H16        22.6949   41.5114   41.5014 H         1 HUN         0.0268
     45 H17        23.5824   43.0778   43.9777 H         1 HUN         0.0265
     46 H18        24.5650   42.9290   42.4814 H         1 HUN         0.0265
     47 H19        25.4998   41.0892   43.3423 H         1 HUN         0.0265
     48 H20        24.3992   41.1485   44.7607 H         1 HUN         0.0265
     49 H21        20.2354   40.0000   43.6564 H         1 HUN         0.0268
     50 H22        21.0954   39.9113   42.0819 H         1 HUN         0.0268
     51 H23        15.8936   44.8323   40.7970 H         1 HUN         0.1114
     52 H24        16.7456   43.2774   38.3097 H         1 HUN         0.0430
     53 H25        15.1310   43.3840   39.0896 H         1 HUN         0.0430
     54 H26        13.8307   38.4778   43.1489 H         1 HUN         0.0530
     55 H27        16.2044   38.0630   42.3368 H         1 HUN         0.0541
     56 H28        17.3516   44.1612   42.8704 H         1 HUN         0.1852
     57 H29        18.2161   39.3010   40.7041 H         1 HUN         0.2216
     58 H30        16.1937   46.4411   39.2751 H         1 HUN         0.2036
     59 H31        17.8164   46.2163   39.4351 H         1 HUN         0.2036
     60 H32        18.8535   46.6021   37.6294 H         1 HUN         0.0317
     61 H33        18.1630   46.2127   36.0174 H         1 HUN         0.0317
     62 H34        19.5193   44.4160   35.8892 H         1 HUN         0.0264
     63 H35        18.6969   43.7215   37.3272 H         1 HUN         0.0264
     64 H36        21.1023   43.8193   37.6283 H         1 HUN         0.0230
     65 H37        20.2495   44.8984   38.7836 H         1 HUN         0.0230
     66 H38        21.0719   45.5929   37.3456 H         1 HUN         0.0230
@<TRIPOS>BOND
     1    2    1 1  
     2    1   15 1  
     3   16    2 1  
     4   19    3 2  
     5    3   23 1  
     6    5    4 ar 
     7    4   21 ar 
     8    4   23 1  
     9    5    6 ar 
    10   19    5 1  
    11    6    7 ar 
    12    7   20 ar 
    13   24    8 1  
    14    8   26 1  
    15   17    9 1  
    16    9   22 am 
    17    9   25 2  
    18   10   11 1  
    19   22   10 1  
    20   11   12 1  
    21   12   13 1  
    22   12   16 1  
    23   13   14 1  
    24   14   15 1  
    25   18   17 1  
    26   17   24 1  
    27   18   19 1  
    28   20   21 ar 
    29   26   27 1  
    30   27   28 1  
    31    1   29 1  
    32    1   30 1  
    33    2   31 1  
    34    2   32 1  
    35    3   33 1  
    36    6   34 1  
    37    7   35 1  
    38    8   36 1  
    39    8   37 1  
    40   10   38 1  
    41   10   39 1  
    42   11   40 1  
    43   11   41 1  
    44   12   42 1  
    45   13   43 1  
    46   13   44 1  
    47   14   45 1  
    48   14   46 1  
    49   15   47 1  
    50   15   48 1  
    51   16   49 1  
    52   16   50 1  
    53   17   51 1  
    54   18   52 1  
    55   18   53 1  
    56   20   54 1  
    57   21   55 1  
    58   22   56 1  
    59   23   57 1  
    60   24   58 1  
    61   24   59 1  
    62   26   60 1  
    63   26   61 1  
    64   27   62 1  
    65   27   63 1  
    66   28   64 1  
    67   28   65 1  
    68   28   66 1  
@<TRIPOS>SUBSTRUCTURE
     1 HUN         1

