### 
### Created by X-TOOL on Mon Aug  2 16:16:27 2021
### 

@<TRIPOS>MOLECULE
6qab_ligand
   72    74     1     0     0
SMALL
GAST_HUCK


@<TRIPOS>ATOM
      1 C01        49.8810   16.2960   85.7230 C.3       1 HUQ        -0.0651
      2 C02        49.1660   16.9300   86.9180 C.3       1 HUQ        -0.0511
      3 C03        48.0840   16.0330   87.5400 C.3       1 HUQ        -0.0127
      4 C04        46.8170   16.8150   87.9280 C.3       1 HUQ        -0.0284
      5 C06        45.9730   14.4880   88.5600 C.3       1 HUQ        -0.0393
      6 C07        45.8810   16.3780   90.2280 C.3       1 HUQ        -0.0393
      7 C08        44.3250   16.3150   88.2160 C.3       1 HUQ         0.0738
      8 C09        44.2280   17.8230   87.7680 C.2       1 HUQ         0.2259
      9 C11        43.7430   19.5980   86.0210 C.3       1 HUQ         0.0313
     10 C12        42.3610   19.8270   85.3400 C.3       1 HUQ        -0.0299
     11 C13        41.3970   20.8010   86.0480 C.3       1 HUQ        -0.0392
     12 C14        42.1760   22.0960   86.4110 C.3       1 HUQ        -0.0501
     13 C15        42.3290   23.1420   85.3030 C.3       1 HUQ        -0.0528
     14 C16        41.2010   24.1990   85.3050 C.3       1 HUQ        -0.0530
     15 C17        39.8810   23.6690   84.7570 C.3       1 HUQ        -0.0530
     16 C18        39.3860   22.4150   85.4790 C.3       1 HUQ        -0.0528
     17 C19        40.1530   21.1100   85.1440 C.3       1 HUQ        -0.0501
     18 C21        43.1770   15.8660   89.1850 C.3       1 HUQ         0.0247
     19 C22        41.8600   16.1020   88.5410 C.2       1 HUQ        -0.0386
     20 C23        41.1470   17.3310   88.6320 C.2       1 HUQ         0.0168
     21 C25        39.9080   15.9530   87.2740 C.ar      1 HUQ         0.0603
     22 C26        41.0670   15.2500   87.6610 C.ar      1 HUQ        -0.0213
     23 C27        41.2510   13.9220   87.1890 C.ar      1 HUQ        -0.0747
     24 C28        40.2830   13.3400   86.3510 C.ar      1 HUQ        -0.0792
     25 C29        39.1200   14.0510   85.9740 C.ar      1 HUQ        -0.0768
     26 C30        38.9020   15.3640   86.4220 C.ar      1 HUQ        -0.0443
     27 N05        45.7500   15.9950   88.7480 N.4       1 HUQ         0.2586
     28 N10        43.8870   18.2130   86.4980 N.am      1 HUQ        -0.2822
     29 N24        39.9730   17.2080   87.8680 N.pl3     1 HUQ        -0.2890
     30 O20        44.4220   18.6830   88.6680 O.2       1 HUQ        -0.3907
     31 H1         50.6366   16.9949   85.3349 H         1 HUQ         0.0230
     32 H2         49.1483   16.0727   84.9335 H         1 HUQ         0.0230
     33 H3         50.3722   15.3647   86.0414 H         1 HUQ         0.0230
     34 H4         48.6916   17.8641   86.5828 H         1 HUQ         0.0264
     35 H5         49.9155   17.1561   87.6907 H         1 HUQ         0.0264
     36 H6         48.4958   15.5593   88.4433 H         1 HUQ         0.0317
     37 H7         47.8090   15.2561   86.8114 H         1 HUQ         0.0317
     38 H8         46.3379   17.1681   87.0030 H         1 HUQ         0.0815
     39 H9         47.1228   17.6794   88.5356 H         1 HUQ         0.0815
     40 H10        45.2209   13.9311   89.1382 H         1 HUQ         0.0779
     41 H11        46.9796   14.2194   88.9131 H         1 HUQ         0.0779
     42 H12        45.8782   14.2335   87.4941 H         1 HUQ         0.0779
     43 H13        45.7182   17.4598   90.3425 H         1 HUQ         0.0779
     44 H14        46.8883   16.1189   90.5861 H         1 HUQ         0.0779
     45 H15        45.1304   15.8300   90.8164 H         1 HUQ         0.0779
     46 H16        44.1946   15.7143   87.3038 H         1 HUQ         0.1116
     47 H17        43.8373   20.2823   86.8770 H         1 HUQ         0.0520
     48 H18        44.5397   19.8097   85.2927 H         1 HUQ         0.0520
     49 H19        41.8577   18.8515   85.2692 H         1 HUQ         0.0287
     50 H20        42.5475   20.2177   84.3288 H         1 HUQ         0.0287
     51 H21        41.0394   20.3333   86.9772 H         1 HUQ         0.0301
     52 H22        43.1859   21.7988   86.7300 H         1 HUQ         0.0268
     53 H23        41.6522   22.5752   87.2512 H         1 HUQ         0.0268
     54 H24        42.3231   22.6260   84.3316 H         1 HUQ         0.0265
     55 H25        43.2913   23.6572   85.4387 H         1 HUQ         0.0265
     56 H26        41.5193   25.0512   84.6867 H         1 HUQ         0.0265
     57 H27        41.0398   24.5364   86.3395 H         1 HUQ         0.0265
     58 H28        40.0165   23.4282   83.6923 H         1 HUQ         0.0265
     59 H29        39.1189   24.4554   84.8610 H         1 HUQ         0.0265
     60 H30        38.3290   22.2653   85.2137 H         1 HUQ         0.0265
     61 H31        39.4711   22.5905   86.5616 H         1 HUQ         0.0265
     62 H32        39.4489   20.2703   85.2394 H         1 HUQ         0.0268
     63 H33        40.5009   21.1803   84.1029 H         1 HUQ         0.0268
     64 H34        43.2375   16.4461   90.1176 H         1 HUQ         0.0430
     65 H35        43.2870   14.7952   89.4114 H         1 HUQ         0.0430
     66 H36        41.4563   18.2110   89.1941 H         1 HUQ         0.0795
     67 H37        42.1334   13.3603   87.4736 H         1 HUQ         0.0540
     68 H38        40.4308   12.3294   85.9879 H         1 HUQ         0.0510
     69 H39        38.3876   13.5764   85.3311 H         1 HUQ         0.0530
     70 H40        38.0121   15.9145   86.1389 H         1 HUQ         0.0541
     71 H41        43.7201   17.4862   85.8318 H         1 HUQ         0.1852
     72 H42        39.2609   17.9447   87.7632 H         1 HUQ         0.2216
@<TRIPOS>BOND
     1    2    1 1  
     2    3    2 1  
     3    4    3 1  
     4   27    4 1  
     5   27    5 1  
     6   27    6 1  
     7    8    7 1  
     8    7   18 1  
     9    7   27 1  
    10   28    8 am 
    11    8   30 2  
    12    9   10 1  
    13    9   28 1  
    14   10   11 1  
    15   11   12 1  
    16   11   17 1  
    17   12   13 1  
    18   13   14 1  
    19   14   15 1  
    20   15   16 1  
    21   16   17 1  
    22   18   19 1  
    23   19   20 2  
    24   19   22 1  
    25   20   29 1  
    26   22   21 ar 
    27   21   26 ar 
    28   21   29 1  
    29   22   23 ar 
    30   23   24 ar 
    31   24   25 ar 
    32   25   26 ar 
    33    1   31 1  
    34    1   32 1  
    35    1   33 1  
    36    2   34 1  
    37    2   35 1  
    38    3   36 1  
    39    3   37 1  
    40    4   38 1  
    41    4   39 1  
    42    5   40 1  
    43    5   41 1  
    44    5   42 1  
    45    6   43 1  
    46    6   44 1  
    47    6   45 1  
    48    7   46 1  
    49    9   47 1  
    50    9   48 1  
    51   10   49 1  
    52   10   50 1  
    53   11   51 1  
    54   12   52 1  
    55   12   53 1  
    56   13   54 1  
    57   13   55 1  
    58   14   56 1  
    59   14   57 1  
    60   15   58 1  
    61   15   59 1  
    62   16   60 1  
    63   16   61 1  
    64   17   62 1  
    65   17   63 1  
    66   18   64 1  
    67   18   65 1  
    68   20   66 1  
    69   23   67 1  
    70   24   68 1  
    71   25   69 1  
    72   26   70 1  
    73   28   71 1  
    74   29   72 1  
@<TRIPOS>SUBSTRUCTURE
     1 HUQ         1

