### 
### Created by X-TOOL on Mon Aug  2 16:16:28 2021
### 

@<TRIPOS>MOLECULE
6qac_ligand
   69    71     1     0     0
SMALL
GAST_HUCK


@<TRIPOS>ATOM
      1 C01        12.1750   49.4240   39.0330 C.3       1 HUT        -0.0651
      2 C02        13.4060   48.5750   39.3680 C.3       1 HUT        -0.0511
      3 C03        13.3330   47.1210   38.8320 C.3       1 HUT        -0.0128
      4 C04        14.2080   46.1500   39.6620 C.3       1 HUT        -0.0315
      5 C06        15.3590   43.9850   39.5950 C.3       1 HUT         0.0707
      6 C07        15.5870   42.7120   38.7800 C.3       1 HUT         0.0245
      7 C08        15.9560   41.5890   39.6180 C.2       1 HUT        -0.0386
      8 C09        17.2100   41.0010   39.6530 C.2       1 HUT         0.0168
      9 C11        15.9000   39.9170   41.1620 C.ar      1 HUT         0.0603
     10 C12        15.1270   40.9320   40.5550 C.ar      1 HUT        -0.0213
     11 C13        13.7930   41.0730   40.9660 C.ar      1 HUT        -0.0747
     12 C14        13.2750   40.2120   41.9340 C.ar      1 HUT        -0.0792
     13 C15        14.0430   39.1990   42.5120 C.ar      1 HUT        -0.0768
     14 C16        15.3740   39.0320   42.1400 C.ar      1 HUT        -0.0443
     15 C17        16.7490   44.6630   39.8210 C.2       1 HUT         0.2258
     16 C19        18.4140   45.4460   41.4590 C.3       1 HUT         0.0311
     17 C20        19.3180   44.5440   42.3120 C.3       1 HUT        -0.0325
     18 C21        19.8980   43.3980   41.4660 C.3       1 HUT        -0.0484
     19 C22        20.7370   42.4170   42.2800 C.3       1 HUT        -0.0410
     20 C23        22.1360   43.0000   42.7190 C.3       1 HUT        -0.0502
     21 C24        23.4260   42.3790   42.1590 C.3       1 HUT        -0.0528
     22 C25        23.7860   41.0250   42.7530 C.3       1 HUT        -0.0530
     23 C26        22.6050   40.3780   43.4800 C.3       1 HUT        -0.0530
     24 C27        21.4720   39.9230   42.5440 C.3       1 HUT        -0.0528
     25 C28        20.8550   41.0180   41.6550 C.3       1 HUT        -0.0502
     26 N05        14.5040   44.9460   38.9060 N.4       1 HUT         0.2470
     27 N10        17.1960   39.9640   40.5970 N.pl3     1 HUT        -0.2890
     28 N18        17.1480   44.8090   41.1420 N.am      1 HUT        -0.2822
     29 O29        17.4740   45.0610   38.8970 O.2       1 HUT        -0.3907
     30 H1         12.3039   50.4355   39.4456 H         1 HUT         0.0230
     31 H2         11.2793   48.9604   39.4720 H         1 HUT         0.0230
     32 H3         12.0582   49.4857   37.9410 H         1 HUT         0.0230
     33 H4         13.5120   48.5356   40.4622 H         1 HUT         0.0264
     34 H5         14.2909   49.0609   38.9311 H         1 HUT         0.0264
     35 H6         13.6820   47.1095   37.7889 H         1 HUT         0.0317
     36 H7         12.2880   46.7799   38.8729 H         1 HUT         0.0317
     37 H8         13.6692   45.8752   40.5808 H         1 HUT         0.0814
     38 H9         15.1512   46.6508   39.9258 H         1 HUT         0.0814
     39 H10        14.9031   43.7206   40.5605 H         1 HUT         0.1114
     40 H11        16.3941   42.8943   38.0552 H         1 HUT         0.0430
     41 H12        14.6601   42.4640   38.2421 H         1 HUT         0.0430
     42 H13        18.0657   41.2956   39.0472 H         1 HUT         0.0795
     43 H14        13.1683   41.8464   40.5340 H         1 HUT         0.0540
     44 H15        12.2443   40.3332   42.2471 H         1 HUT         0.0510
     45 H16        13.6017   38.5412   43.2520 H         1 HUT         0.0530
     46 H17        15.9869   38.2543   42.5811 H         1 HUT         0.0541
     47 H18        18.9355   45.6847   40.5204 H         1 HUT         0.0520
     48 H19        18.2145   46.3745   42.0140 H         1 HUT         0.0520
     49 H20        18.7285   44.1200   43.1382 H         1 HUT         0.0285
     50 H21        20.1440   45.1443   42.7212 H         1 HUT         0.0285
     51 H22        20.5321   43.8308   40.6782 H         1 HUT         0.0269
     52 H23        19.0650   42.8472   41.0049 H         1 HUT         0.0269
     53 H24        20.1762   42.2694   43.2147 H         1 HUT         0.0301
     54 H25        22.1889   42.9134   43.8143 H         1 HUT         0.0268
     55 H26        22.1431   44.0625   42.4344 H         1 HUT         0.0268
     56 H27        24.2558   43.0729   42.3586 H         1 HUT         0.0265
     57 H28        23.3042   42.2558   41.0727 H         1 HUT         0.0265
     58 H29        24.6107   41.1603   43.4683 H         1 HUT         0.0265
     59 H30        24.1105   40.3574   41.9412 H         1 HUT         0.0265
     60 H31        22.1939   41.1087   44.1920 H         1 HUT         0.0265
     61 H32        22.9750   39.4994   44.0288 H         1 HUT         0.0265
     62 H33        20.6689   39.5019   43.1666 H         1 HUT         0.0265
     63 H34        21.8736   39.1397   41.8843 H         1 HUT         0.0265
     64 H35        21.4766   41.1059   40.7518 H         1 HUT         0.0268
     65 H36        19.8434   40.6904   41.3735 H         1 HUT         0.0268
     66 H37        14.9635   45.2177   38.0510 H         1 HUT         0.2036
     67 H38        13.6318   44.4900   38.6885 H         1 HUT         0.2036
     68 H39        17.9863   39.3481   40.8357 H         1 HUT         0.2216
     69 H40        16.5611   44.4740   41.8791 H         1 HUT         0.1852
@<TRIPOS>BOND
     1    2    1 1  
     2    3    2 1  
     3    4    3 1  
     4   26    4 1  
     5    5    6 1  
     6   15    5 1  
     7    5   26 1  
     8    6    7 1  
     9    7    8 2  
    10    7   10 1  
    11    8   27 1  
    12   10    9 ar 
    13    9   14 ar 
    14    9   27 1  
    15   10   11 ar 
    16   11   12 ar 
    17   12   13 ar 
    18   14   13 ar 
    19   28   15 am 
    20   15   29 2  
    21   16   17 1  
    22   16   28 1  
    23   17   18 1  
    24   18   19 1  
    25   19   20 1  
    26   19   25 1  
    27   20   21 1  
    28   21   22 1  
    29   22   23 1  
    30   23   24 1  
    31   24   25 1  
    32    1   30 1  
    33    1   31 1  
    34    1   32 1  
    35    2   33 1  
    36    2   34 1  
    37    3   35 1  
    38    3   36 1  
    39    4   37 1  
    40    4   38 1  
    41    5   39 1  
    42    6   40 1  
    43    6   41 1  
    44    8   42 1  
    45   11   43 1  
    46   12   44 1  
    47   13   45 1  
    48   14   46 1  
    49   16   47 1  
    50   16   48 1  
    51   17   49 1  
    52   17   50 1  
    53   18   51 1  
    54   18   52 1  
    55   19   53 1  
    56   20   54 1  
    57   20   55 1  
    58   21   56 1  
    59   21   57 1  
    60   22   58 1  
    61   22   59 1  
    62   23   60 1  
    63   23   61 1  
    64   24   62 1  
    65   24   63 1  
    66   25   64 1  
    67   25   65 1  
    68   26   66 1  
    69   26   67 1  
    70   27   68 1  
    71   28   69 1  
@<TRIPOS>SUBSTRUCTURE
     1 HUT         1

