### 
### Created by X-TOOL on Mon Aug  2 16:16:28 2021
### 

@<TRIPOS>MOLECULE
6qad_ligand
   72    74     1     0     0
SMALL
GAST_HUCK


@<TRIPOS>ATOM
      1 C23        13.9130   40.9390   41.9920 C.ar      1 HUZ        -0.0792
      2 C24        15.0700   40.1670   42.2250 C.ar      1 HUZ        -0.0768
      3 C25        16.2390   40.4310   41.5430 C.ar      1 HUZ        -0.0443
      4 N26        12.9730   46.1400   39.5580 N.4       1 HUZ         0.2470
      5 C21        15.0730   42.2810   40.3620 C.ar      1 HUZ        -0.0213
      6 C14        19.8520   44.6700   40.5340 C.3       1 HUZ        -0.0451
      7 C15        14.2100   45.3510   39.8880 C.3       1 HUZ         0.0707
      8 C16        14.5560   44.3070   38.7870 C.3       1 HUZ         0.0245
      9 C13        20.6830   43.5410   41.1480 C.3       1 HUZ        -0.0094
     10 C12        21.2490   42.0800   44.3320 C.3       1 HUZ        -0.0431
     11 C11        22.0960   41.4860   42.1660 C.3       1 HUZ        -0.0431
     12 C02        15.4810   46.2810   40.0670 C.2       1 HUZ         0.2258
     13 C04        17.2250   47.2760   41.6590 C.3       1 HUZ         0.0313
     14 C05        18.4890   46.8050   40.8600 C.3       1 HUZ        -0.0299
     15 C06        19.3930   45.7280   41.5420 C.3       1 HUZ        -0.0388
     16 C07        18.6810   45.0030   42.7060 C.3       1 HUZ        -0.0451
     17 C08        19.4780   43.8530   43.3360 C.3       1 HUZ        -0.0094
     18 C09        19.9500   42.8080   42.3030 C.3       1 HUZ        -0.0214
     19 C17        15.4170   43.2500   39.3550 C.2       1 HUZ        -0.0386
     20 C18        16.7360   43.0370   39.0550 C.2       1 HUZ         0.0168
     21 C20        16.2140   41.4850   40.6220 C.ar      1 HUZ         0.0603
     22 C22        13.9160   41.9710   41.0840 C.ar      1 HUZ        -0.0747
     23 C27        13.1670   47.5430   39.1450 C.3       1 HUZ        -0.0315
     24 C28        12.6690   48.5600   40.1700 C.3       1 HUZ        -0.0128
     25 C29        11.2760   49.0940   39.8360 C.3       1 HUZ        -0.0511
     26 C30        10.8600   50.2830   40.6760 C.3       1 HUZ        -0.0651
     27 N03        16.0210   46.4470   41.3640 N.am      1 HUZ        -0.2822
     28 N10        20.8460   41.7180   42.9450 N.4       1 HUZ         0.2331
     29 N19        17.2490   41.9620   39.7990 N.pl3     1 HUZ        -0.2890
     30 O01        16.0200   46.8070   39.1110 O.2       1 HUZ        -0.3907
     31 H1         13.0045   40.7144   42.5391 H         1 HUZ         0.0510
     32 H2         15.0401   39.3588   42.9468 H         1 HUZ         0.0530
     33 H3         17.1373   39.8484   41.7125 H         1 HUZ         0.0541
     34 H4         12.3855   46.1421   40.3771 H         1 HUZ         0.2036
     35 H5         12.4996   45.6639   38.8062 H         1 HUZ         0.2036
     36 H6         18.9596   44.2276   40.0672 H         1 HUZ         0.0270
     37 H7         20.4602   45.1673   39.7641 H         1 HUZ         0.0270
     38 H8         14.0257   44.8190   40.8330 H         1 HUZ         0.1114
     39 H9         15.0864   44.8068   37.9631 H         1 HUZ         0.0430
     40 H10        13.6277   43.8566   38.4058 H         1 HUZ         0.0430
     41 H11        21.6178   43.9674   41.5409 H         1 HUZ         0.0320
     42 H12        20.9162   42.8092   40.3606 H         1 HUZ         0.0320
     43 H13        21.8816   41.2830   44.7498 H         1 HUZ         0.0777
     44 H14        20.3507   42.1998   44.9554 H         1 HUZ         0.0777
     45 H15        21.8125   43.0245   44.3154 H         1 HUZ         0.0777
     46 H16        21.8383   41.2152   41.1315 H         1 HUZ         0.0777
     47 H17        22.6690   40.6682   42.6272 H         1 HUZ         0.0777
     48 H18        22.7028   42.4035   42.1645 H         1 HUZ         0.0777
     49 H19        17.0079   48.3207   41.3919 H         1 HUZ         0.0520
     50 H20        17.4433   47.2104   42.7351 H         1 HUZ         0.0520
     51 H21        19.1125   47.6913   40.6709 H         1 HUZ         0.0287
     52 H22        18.1417   46.3898   39.9024 H         1 HUZ         0.0287
     53 H23        20.2800   46.2401   41.9433 H         1 HUZ         0.0301
     54 H24        17.7338   44.5935   42.3250 H         1 HUZ         0.0270
     55 H25        18.4706   45.7434   43.4919 H         1 HUZ         0.0270
     56 H26        18.8400   43.3494   44.0772 H         1 HUZ         0.0320
     57 H27        20.3619   44.2732   43.8381 H         1 HUZ         0.0320
     58 H28        19.0620   42.3090   41.8878 H         1 HUZ         0.0851
     59 H29        17.3093   43.6217   38.3371 H         1 HUZ         0.0795
     60 H30        13.0132   42.5499   40.9261 H         1 HUZ         0.0540
     61 H31        12.6238   47.7057   38.2024 H         1 HUZ         0.0814
     62 H32        14.2418   47.7117   38.9827 H         1 HUZ         0.0814
     63 H33        13.3729   49.4048   40.1994 H         1 HUZ         0.0317
     64 H34        12.6341   48.0772   41.1578 H         1 HUZ         0.0317
     65 H35        10.5473   48.2854   39.9946 H         1 HUZ         0.0264
     66 H36        11.2646   49.3957   38.7782 H         1 HUZ         0.0264
     67 H37         9.8521   50.6077   40.3781 H         1 HUZ         0.0230
     68 H38        11.5714   51.1077   40.5219 H         1 HUZ         0.0230
     69 H39        10.8541   49.9974   41.7383 H         1 HUZ         0.0230
     70 H40        15.5699   45.9822   42.1259 H         1 HUZ         0.1852
     71 H41        20.3176   40.8601   42.9730 H         1 HUZ         0.2030
     72 H42        18.2086   41.5908   39.7505 H         1 HUZ         0.2216
@<TRIPOS>BOND
     1    1    2 ar 
     2   22    1 ar 
     3    3    2 ar 
     4   21    3 ar 
     5    7    4 1  
     6    4   23 1  
     7   19    5 1  
     8    5   21 ar 
     9    5   22 ar 
    10    9    6 1  
    11    6   15 1  
    12    7    8 1  
    13   12    7 1  
    14    8   19 1  
    15   18    9 1  
    16   28   10 1  
    17   28   11 1  
    18   27   12 am 
    19   12   30 2  
    20   14   13 1  
    21   13   27 1  
    22   15   14 1  
    23   16   15 1  
    24   17   16 1  
    25   18   17 1  
    26   18   28 1  
    27   19   20 2  
    28   20   29 1  
    29   21   29 1  
    30   23   24 1  
    31   24   25 1  
    32   25   26 1  
    33    1   31 1  
    34    2   32 1  
    35    3   33 1  
    36    4   34 1  
    37    4   35 1  
    38    6   36 1  
    39    6   37 1  
    40    7   38 1  
    41    8   39 1  
    42    8   40 1  
    43    9   41 1  
    44    9   42 1  
    45   10   43 1  
    46   10   44 1  
    47   10   45 1  
    48   11   46 1  
    49   11   47 1  
    50   11   48 1  
    51   13   49 1  
    52   13   50 1  
    53   14   51 1  
    54   14   52 1  
    55   15   53 1  
    56   16   54 1  
    57   16   55 1  
    58   17   56 1  
    59   17   57 1  
    60   18   58 1  
    61   20   59 1  
    62   22   60 1  
    63   23   61 1  
    64   23   62 1  
    65   24   63 1  
    66   24   64 1  
    67   25   65 1  
    68   25   66 1  
    69   26   67 1  
    70   26   68 1  
    71   26   69 1  
    72   27   70 1  
    73   28   71 1  
    74   29   72 1  
@<TRIPOS>SUBSTRUCTURE
     1 HUZ         1

