### 
### Created by X-TOOL on Mon Aug  2 16:16:29 2021
### 

@<TRIPOS>MOLECULE
6qae_ligand
   74    76     1     0     0
SMALL
GAST_HUCK


@<TRIPOS>ATOM
      1 C10       134.4190  108.3970   41.0780 C.3       1 HUK        -0.0429
      2 C12       132.6980  110.6590   41.3440 C.3       1 HUK        -0.0097
      3 C13       132.0650  111.6700   42.3660 C.3       1 HUK        -0.0362
      4 C14       132.7540  113.0510   42.2770 C.3       1 HUK        -0.0500
      5 C15       132.1820  114.0870   43.2520 C.3       1 HUK        -0.0528
      6 C16       130.9570  114.8370   42.7380 C.3       1 HUK        -0.0530
      7 C17       129.6420  114.0760   42.9270 C.3       1 HUK        -0.0530
      8 C20       136.6550  111.6930   38.7540 C.3       1 HUK         0.0119
      9 C22       139.1290  111.4410   39.2960 C.2       1 HUK         0.0166
     10 C24       139.5010  113.1350   40.7480 C.ar      1 HUK         0.0603
     11 C28       139.3050  115.0140   42.1740 C.ar      1 HUK        -0.0768
     12 C26       137.3520  114.2010   40.9410 C.ar      1 HUK        -0.0747
     13 C25       138.1260  113.1750   40.3640 C.ar      1 HUK        -0.0214
     14 C18       129.8030  112.5890   43.2360 C.3       1 HUK        -0.0528
     15 C01       135.4750  105.8570   35.6030 C.3       1 HUK        -0.0651
     16 C02       135.4890  107.2940   35.0770 C.3       1 HUK        -0.0511
     17 C03       134.7270  108.2740   35.9920 C.3       1 HUK        -0.0128
     18 C04       135.3250  108.2850   37.4140 C.3       1 HUK        -0.0316
     19 C06       134.3790  110.6810   37.3680 C.3       1 HUK        -0.0425
     20 C07       136.3950  110.1380   38.8960 C.3       1 HUK         0.0239
     21 C08       136.4640  109.6880   40.4160 C.3       1 HUK         0.0131
     22 C11       134.1790  110.9480   41.0170 C.3       1 HUK        -0.0317
     23 C19       130.5440  111.8020   42.1490 C.3       1 HUK        -0.0500
     24 C21       137.9120  112.0930   39.4290 C.2       1 HUK        -0.0408
     25 C27       137.9360  115.0880   41.8180 C.ar      1 HUK        -0.0792
     26 C29       140.1030  114.0340   41.6410 C.ar      1 HUK        -0.0443
     27 N05       135.0590  109.6110   38.2250 N.4       1 HUK         0.2399
     28 N09       135.1590  109.7010   41.2750 N.4       1 HUK         0.2371
     29 N23       140.0840  112.0600   40.0750 N.pl3     1 HUK        -0.2891
     30 H1        135.1043  107.5557   41.2584 H         1 HUK         0.0778
     31 H2        134.0369  108.3442   40.0479 H         1 HUK         0.0778
     32 H3        133.5776  108.3425   41.7844 H         1 HUK         0.0778
     33 H4        132.1211  110.7047   40.4085 H         1 HUK         0.0319
     34 H5        132.6279  109.6468   41.7689 H         1 HUK         0.0319
     35 H6        132.2292  111.2737   43.3789 H         1 HUK         0.0303
     36 H7        132.6339  113.4341   41.2529 H         1 HUK         0.0268
     37 H8        133.8239  112.9205   42.4967 H         1 HUK         0.0268
     38 H9        132.9689  114.8242   43.4694 H         1 HUK         0.0265
     39 H10       131.9009  113.5664   44.1793 H         1 HUK         0.0265
     40 H11       131.0943  115.0305   41.6639 H         1 HUK         0.0265
     41 H12       130.8846  115.7934   43.2766 H         1 HUK         0.0265
     42 H13       129.0548  114.1719   42.0018 H         1 HUK         0.0265
     43 H14       129.0936  114.5413   43.7593 H         1 HUK         0.0265
     44 H15       135.8152  112.2396   39.2078 H         1 HUK         0.0406
     45 H16       136.7247  111.9485   37.6864 H         1 HUK         0.0406
     46 H17       139.3046  110.5684   38.6686 H         1 HUK         0.0795
     47 H18       139.7228  115.7333   42.8691 H         1 HUK         0.0530
     48 H19       136.3001  114.2921   40.6955 H         1 HUK         0.0540
     49 H20       128.8015  112.1508   43.3580 H         1 HUK         0.0265
     50 H21       130.3636  112.4902   44.1772 H         1 HUK         0.0265
     51 H22       136.0317  105.2079   34.9111 H         1 HUK         0.0230
     52 H23       134.4358  105.5048   35.6801 H         1 HUK         0.0230
     53 H24       135.9475  105.8253   36.5958 H         1 HUK         0.0230
     54 H25       135.0220  107.3081   34.0811 H         1 HUK         0.0264
     55 H26       136.5338  107.6286   34.9969 H         1 HUK         0.0264
     56 H27       133.6723  107.9668   36.0482 H         1 HUK         0.0317
     57 H28       134.7919  109.2866   35.5672 H         1 HUK         0.0317
     58 H29       136.4129  108.1459   37.3303 H         1 HUK         0.0814
     59 H30       134.8901  107.4454   37.9761 H         1 HUK         0.0814
     60 H31       134.2137  111.5848   37.9729 H         1 HUK         0.0778
     61 H32       133.4126  110.3008   37.0053 H         1 HUK         0.0778
     62 H33       135.0218  110.9266   36.5099 H         1 HUK         0.0778
     63 H34       137.2227  109.6387   38.3710 H         1 HUK         0.0920
     64 H35       137.1841  110.3527   40.9156 H         1 HUK         0.0872
     65 H36       136.8468  108.6569   40.4288 H         1 HUK         0.0872
     66 H37       134.5145  111.7874   41.6438 H         1 HUK         0.0814
     67 H38       134.2506  111.2308   39.9564 H         1 HUK         0.0814
     68 H39       130.1155  110.7897   42.1079 H         1 HUK         0.0268
     69 H40       130.3788  112.3094   41.1871 H         1 HUK         0.0268
     70 H41       137.3254  115.8716   42.2518 H         1 HUK         0.0510
     71 H42       141.1532  113.9575   41.8986 H         1 HUK         0.0541
     72 H43       134.4209  109.3823   38.9710 H         1 HUK         0.2037
     73 H44       135.4441  109.7522   42.2405 H         1 HUK         0.2033
     74 H45       141.0709  111.7744   40.1485 H         1 HUK         0.2216
@<TRIPOS>BOND
     1   28    1 1  
     2    2    3 1  
     3   22    2 1  
     4    3    4 1  
     5    3   23 1  
     6    4    5 1  
     7    5    6 1  
     8    7    6 1  
     9   14    7 1  
    10   20    8 1  
    11    8   24 1  
    12   24    9 2  
    13    9   29 1  
    14   13   10 ar 
    15   10   26 ar 
    16   10   29 1  
    17   25   11 ar 
    18   26   11 ar 
    19   13   12 ar 
    20   12   25 ar 
    21   24   13 1  
    22   23   14 1  
    23   16   15 1  
    24   17   16 1  
    25   18   17 1  
    26   27   18 1  
    27   27   19 1  
    28   21   20 1  
    29   20   27 1  
    30   28   21 1  
    31   22   28 1  
    32    1   30 1  
    33    1   31 1  
    34    1   32 1  
    35    2   33 1  
    36    2   34 1  
    37    3   35 1  
    38    4   36 1  
    39    4   37 1  
    40    5   38 1  
    41    5   39 1  
    42    6   40 1  
    43    6   41 1  
    44    7   42 1  
    45    7   43 1  
    46    8   44 1  
    47    8   45 1  
    48    9   46 1  
    49   11   47 1  
    50   12   48 1  
    51   14   49 1  
    52   14   50 1  
    53   15   51 1  
    54   15   52 1  
    55   15   53 1  
    56   16   54 1  
    57   16   55 1  
    58   17   56 1  
    59   17   57 1  
    60   18   58 1  
    61   18   59 1  
    62   19   60 1  
    63   19   61 1  
    64   19   62 1  
    65   20   63 1  
    66   21   64 1  
    67   21   65 1  
    68   22   66 1  
    69   22   67 1  
    70   23   68 1  
    71   23   69 1  
    72   25   70 1  
    73   26   71 1  
    74   27   72 1  
    75   28   73 1  
    76   29   74 1  
@<TRIPOS>SUBSTRUCTURE
     1 HUK         1

