### 
### Created by X-TOOL on Mon Aug  2 16:11:28 2021
### 

@<TRIPOS>MOLECULE
6qas_ligand
   59    63     1     0     0
SMALL
GAST_HUCK


@<TRIPOS>ATOM
      1 C01         0.5280   24.8300   41.0700 C.3       1 MOL         0.0258
      2 C02         0.0310   25.3840   39.7660 C.2       1 MOL         0.1749
      3 O03        -0.2010   24.6610   38.7960 O.2       1 MOL        -0.3972
      4 N04        -0.1280   26.7090   39.7150 N.am      1 MOL        -0.2685
      5 C05        -0.8180   27.3440   38.6150 C.3       1 MOL         0.1204
      6 C06        -0.9840   28.8320   38.8290 C.2       1 MOL         0.2047
      7 O07        -0.6400   29.3630   39.8760 O.2       1 MOL        -0.3943
      8 N08        -1.6640   29.5080   37.8790 N.am      1 MOL        -0.2467
      9 C09        -2.1820   30.8420   38.0510 C.3       1 MOL         0.0748
     10 C10        -2.1840   31.3180   36.5860 C.3       1 MOL        -0.0180
     11 C11        -2.4430   29.9840   35.7910 C.3       1 MOL        -0.0171
     12 C12        -2.5950   28.9570   36.9220 C.3       1 MOL         0.0767
     13 C13        -3.9100   29.3810   37.5390 C.ar      1 MOL        -0.0202
     14 C14        -3.6500   30.5440   38.2630 C.ar      1 MOL        -0.0222
     15 C15        -4.6250   31.1080   39.0710 C.ar      1 MOL        -0.0712
     16 C16        -5.8690   30.4820   39.1530 C.ar      1 MOL        -0.0476
     17 C17        -6.1360   29.3240   38.3970 C.ar      1 MOL         0.0620
     18 C18        -5.1520   28.7660   37.5810 C.ar      1 MOL        -0.0372
     19 N19        -7.3490   28.6070   38.4750 N.pl3     1 MOL        -0.2327
     20 C20        -8.3740   28.6950   39.3560 C.ar      1 MOL         0.2271
     21 N21        -9.4040   27.8720   39.1420 N.ar      1 MOL        -0.2275
     22 C22       -10.3680   27.9150   40.0620 C.ar      1 MOL         0.0374
     23 C23       -10.3650   28.7820   41.1350 C.ar      1 MOL         0.0980
     24 C24        -9.2290   29.6320   41.2440 C.ar      1 MOL         0.1500
     25 N25        -8.2400   29.5540   40.3690 N.ar      1 MOL        -0.2078
     26 N26        -9.1320   30.5600   42.2230 N.pl3     1 MOL        -0.2820
     27 C27        -7.9090   31.3510   42.3330 C.3       1 MOL         0.0478
     28 C28        -7.9010   32.7590   41.7080 C.3       1 MOL        -0.0280
     29 C29        -6.9640   33.1720   42.8970 C.3       1 MOL        -0.0485
     30 C30        -7.5600   31.9890   43.6920 C.3       1 MOL        -0.0280
     31 C31       -11.4930   28.7610   42.1040 C.3       1 MOL         0.3624
     32 F32       -11.0790   28.6230   43.3430 F         1 MOL        -0.2410
     33 F33       -12.2950   27.7570   41.8820 F         1 MOL        -0.2410
     34 F34       -12.2060   29.8740   42.0370 F         1 MOL        -0.2410
     35 H1          0.6653   25.6513   41.7888 H         1 MOL         0.0467
     36 H2          1.4888   24.3193   40.9090 H         1 MOL         0.0467
     37 H3         -0.2060   24.1137   41.4676 H         1 MOL         0.0467
     38 H4          0.2384   27.2743   40.4541 H         1 MOL         0.1880
     39 H5         -1.8134   26.8878   38.5102 H         1 MOL         0.0763
     40 H6         -0.2409   27.1807   37.6929 H         1 MOL         0.0763
     41 H7         -1.6872   31.4873   38.7917 H         1 MOL         0.0692
     42 H8         -1.2158   31.7620   36.3115 H         1 MOL         0.0309
     43 H9         -2.9864   32.0488   36.4071 H         1 MOL         0.0309
     44 H10        -1.5922   29.7365   35.1392 H         1 MOL         0.0310
     45 H11        -3.3601   30.0511   35.1873 H         1 MOL         0.0310
     46 H12        -2.4838   27.8950   36.6580 H         1 MOL         0.0707
     47 H13        -4.4250   32.0165   39.6275 H         1 MOL         0.0518
     48 H14        -6.6351   30.8894   39.8027 H         1 MOL         0.0482
     49 H15        -5.3527   27.8759   36.9957 H         1 MOL         0.0474
     50 H16        -7.4761   27.8981   37.7387 H         1 MOL         0.2285
     51 H17       -11.2017   27.2296   39.9611 H         1 MOL         0.1102
     52 H18        -9.9099   30.7070   42.8820 H         1 MOL         0.1982
     53 H19        -7.0919   30.7216   41.9505 H         1 MOL         0.0579
     54 H20        -8.8781   33.2640   41.6914 H         1 MOL         0.0289
     55 H21        -7.4393   32.8208   40.7115 H         1 MOL         0.0289
     56 H22        -7.1749   34.1636   43.3238 H         1 MOL         0.0267
     57 H23        -5.8882   33.0856   42.6842 H         1 MOL         0.0267
     58 H24        -6.8312   31.4242   44.2918 H         1 MOL         0.0289
     59 H25        -8.4285   32.2455   44.3164 H         1 MOL         0.0289
@<TRIPOS>BOND
     1    1    2 1  
     2    2    3 2  
     3    2    4 am 
     4    4    5 1  
     5    5    6 1  
     6    6    7 2  
     7    6    8 am 
     8    8    9 1  
     9    8   12 1  
    10    9   10 1  
    11    9   14 1  
    12   10   11 1  
    13   11   12 1  
    14   12   13 1  
    15   13   14 ar 
    16   13   18 ar 
    17   14   15 ar 
    18   15   16 ar 
    19   16   17 ar 
    20   17   18 ar 
    21   17   19 1  
    22   19   20 1  
    23   20   21 ar 
    24   20   25 ar 
    25   21   22 ar 
    26   22   23 ar 
    27   23   24 ar 
    28   23   31 1  
    29   24   25 ar 
    30   24   26 1  
    31   26   27 1  
    32   27   28 1  
    33   27   30 1  
    34   28   29 1  
    35   29   30 1  
    36   31   32 1  
    37   31   33 1  
    38   31   34 1  
    39    1   35 1  
    40    1   36 1  
    41    1   37 1  
    42    4   38 1  
    43    5   39 1  
    44    5   40 1  
    45    9   41 1  
    46   10   42 1  
    47   10   43 1  
    48   11   44 1  
    49   11   45 1  
    50   12   46 1  
    51   15   47 1  
    52   16   48 1  
    53   18   49 1  
    54   19   50 1  
    55   22   51 1  
    56   26   52 1  
    57   27   53 1  
    58   28   54 1  
    59   28   55 1  
    60   29   56 1  
    61   29   57 1  
    62   30   58 1  
    63   30   59 1  
@<TRIPOS>SUBSTRUCTURE
     1 MOL         1

