### 
### Created by X-TOOL on Mon Aug  2 16:16:29 2021
### 

@<TRIPOS>MOLECULE
6qat_ligand
   70    74     1     0     0
SMALL
GAST_HUCK


@<TRIPOS>ATOM
      1 C4        -31.7600   10.3370  -75.3470 C.ar      1 FE7        -0.0257
      2 C14       -34.3500   10.1030  -71.4610 C.ar      1 FE7        -0.0580
      3 C5        -30.7250   10.8790  -76.1230 C.ar      1 FE7         0.0474
      4 C6        -30.4670   12.2430  -76.1430 C.ar      1 FE7        -0.0613
      5 C11       -33.0520    8.5170  -73.3530 C.ar      1 FE7         0.0221
      6 C7        -31.2550   13.0590  -75.3260 C.ar      1 FE7        -0.0638
      7 C8        -30.5200    8.6440  -76.2650 C.2       1 FE7         0.1983
      8 C9        -31.6250    8.9270  -75.3670 C.2       1 FE7         0.0593
      9 C10       -32.2150    8.0430  -74.4840 C.2       1 FE7         0.0923
     10 C12       -34.3300    9.0120  -73.5920 C.ar      1 FE7        -0.0453
     11 C13       -34.9590    9.8240  -72.6560 C.ar      1 FE7        -0.0568
     12 N1        -30.0310    9.8390  -76.6780 N.am      1 FE7        -0.2525
     13 N2        -32.0410    6.7380  -74.6730 N.pl3     1 FE7        -0.2640
     14 C3        -32.5570   11.1560  -74.6360 C.ar      1 FE7        -0.0623
     15 N3        -33.6350    1.3580  -71.4290 N.4       1 FE7         0.2458
     16 O2        -30.0860    7.5550  -76.5760 O.2       1 FE7        -0.3983
     17 C2        -32.2970   12.4990  -74.5630 C.ar      1 FE7         0.0396
     18 N         -33.0670   13.1620  -73.5760 N.am      1 FE7        -0.2020
     19 S         -32.8750   14.5640  -73.0150 S.o2      1 FE7         0.0570
     20 O         -34.1710   15.1720  -73.0300 O.2       1 FE7        -0.1505
     21 O1        -31.7980   15.1710  -73.7490 O.2       1 FE7        -0.1505
     22 C1        -32.3840   14.3320  -71.3380 C.3       1 FE7         0.0866
     23 C         -31.1920   13.4200  -71.2280 C.3       1 FE7        -0.0435
     24 C16       -32.4760    8.7540  -72.1110 C.ar      1 FE7        -0.0453
     25 C15       -33.1240    9.5470  -71.1740 C.ar      1 FE7        -0.0568
     26 C17       -32.6720    5.6630  -73.9980 C.ar      1 FE7         0.0599
     27 C22       -33.7030    5.8800  -73.0870 C.ar      1 FE7        -0.0432
     28 C21       -34.2670    4.8150  -72.4110 C.ar      1 FE7        -0.0637
     29 C20       -33.8430    3.5150  -72.6410 C.ar      1 FE7        -0.0090
     30 C19       -32.8120    3.3080  -73.5480 C.ar      1 FE7        -0.0637
     31 C18       -32.2400    4.3640  -74.2320 C.ar      1 FE7        -0.0432
     32 C23       -34.5530    2.3490  -72.0030 C.3       1 FE7        -0.0028
     33 C28       -33.0190    1.8660  -70.1970 C.3       1 FE7        -0.0307
     34 C27       -31.8530    1.0110  -69.7870 C.3       1 FE7        -0.0123
     35 C26       -32.1110   -0.4400  -70.1010 C.3       1 FE7        -0.0434
     36 C25       -33.6030   -0.7350  -70.0860 C.3       1 FE7        -0.0123
     37 C24       -34.3410    0.1020  -71.1290 C.3       1 FE7        -0.0307
     38 H1        -34.8315   10.7587  -70.7446 H         1 FE7         0.0649
     39 H2        -29.6850   12.6591  -76.7678 H         1 FE7         0.0450
     40 H3        -31.0633   14.1249  -75.2800 H         1 FE7         0.0401
     41 H4        -34.8392    8.7623  -74.5158 H         1 FE7         0.0663
     42 H5        -35.9368   10.2389  -72.8726 H         1 FE7         0.0628
     43 H6        -29.2616    9.9465  -77.3077 H         1 FE7         0.2182
     44 H7        -31.3621    6.4754  -75.4017 H         1 FE7         0.2183
     45 H8        -33.4153   10.7478  -74.1147 H         1 FE7         0.0365
     46 H9        -32.9083    1.1696  -72.1017 H         1 FE7         0.2046
     47 H10       -33.8345   12.6429  -73.1999 H         1 FE7         0.2099
     48 H11       -33.2226   13.8916  -70.7787 H         1 FE7         0.0520
     49 H12       -32.1264   15.3092  -70.9035 H         1 FE7         0.0520
     50 H13       -30.9177   13.3011  -70.1694 H         1 FE7         0.0246
     51 H14       -30.3454   13.8549  -71.7795 H         1 FE7         0.0246
     52 H15       -31.4415   12.4373  -71.6546 H         1 FE7         0.0246
     53 H16       -31.5135    8.3164  -71.8720 H         1 FE7         0.0663
     54 H17       -32.6618    9.7295  -70.2106 H         1 FE7         0.0628
     55 H18       -34.0637    6.8864  -72.9079 H         1 FE7         0.0526
     56 H19       -35.0541    4.9989  -71.6887 H         1 FE7         0.0533
     57 H20       -32.4498    2.3013  -73.7224 H         1 FE7         0.0533
     58 H21       -31.4522    4.1779  -74.9529 H         1 FE7         0.0526
     59 H22       -35.2016    2.7309  -71.2008 H         1 FE7         0.0959
     60 H23       -35.1689    1.8535  -72.7679 H         1 FE7         0.0959
     61 H24       -33.7685    1.8625  -69.3919 H         1 FE7         0.0814
     62 H25       -32.6686    2.8947  -70.3674 H         1 FE7         0.0814
     63 H26       -31.6889    1.1212  -68.7049 H         1 FE7         0.0317
     64 H27       -30.9554    1.3424  -70.3297 H         1 FE7         0.0317
     65 H28       -31.6112   -1.0671  -69.3480 H         1 FE7         0.0269
     66 H29       -31.7070   -0.6714  -71.0976 H         1 FE7         0.0269
     67 H30       -34.0050   -0.5021  -69.0890 H         1 FE7         0.0317
     68 H31       -33.7603   -1.8015  -70.3048 H         1 FE7         0.0317
     69 H32       -34.4316   -0.4843  -72.0553 H         1 FE7         0.0814
     70 H33       -35.3443    0.3413  -70.7469 H         1 FE7         0.0814
@<TRIPOS>BOND
     1    1    3 ar 
     2    8    1 1  
     3    1   14 ar 
     4   11    2 ar 
     5   25    2 ar 
     6    3    4 ar 
     7   12    3 1  
     8    4    6 ar 
     9    9    5 1  
    10    5   10 ar 
    11    5   24 ar 
    12   17    6 ar 
    13    8    7 1  
    14    7   12 am 
    15    7   16 2  
    16    9    8 2  
    17   13    9 1  
    18   10   11 ar 
    19   26   13 1  
    20   14   17 ar 
    21   32   15 1  
    22   15   33 1  
    23   15   37 1  
    24   17   18 1  
    25   18   19 am 
    26   19   20 2  
    27   19   21 2  
    28   19   22 1  
    29   22   23 1  
    30   24   25 ar 
    31   27   26 ar 
    32   26   31 ar 
    33   28   27 ar 
    34   29   28 ar 
    35   29   30 ar 
    36   29   32 1  
    37   30   31 ar 
    38   33   34 1  
    39   34   35 1  
    40   35   36 1  
    41   36   37 1  
    42    2   38 1  
    43    4   39 1  
    44    6   40 1  
    45   10   41 1  
    46   11   42 1  
    47   12   43 1  
    48   13   44 1  
    49   14   45 1  
    50   15   46 1  
    51   18   47 1  
    52   22   48 1  
    53   22   49 1  
    54   23   50 1  
    55   23   51 1  
    56   23   52 1  
    57   24   53 1  
    58   25   54 1  
    59   27   55 1  
    60   28   56 1  
    61   30   57 1  
    62   31   58 1  
    63   32   59 1  
    64   32   60 1  
    65   33   61 1  
    66   33   62 1  
    67   34   63 1  
    68   34   64 1  
    69   35   65 1  
    70   35   66 1  
    71   36   67 1  
    72   36   68 1  
    73   37   69 1  
    74   37   70 1  
@<TRIPOS>SUBSTRUCTURE
     1 FE7         1

