### 
### Created by X-TOOL on Mon Aug  2 16:16:29 2021
### 

@<TRIPOS>MOLECULE
6qau_ligand
   69    73     1     0     0
SMALL
GAST_HUCK


@<TRIPOS>ATOM
      1 CAM        37.5730  -44.4250  -31.3450 C.3       1 MOL        -0.0331
      2 CAH        36.8910  -45.5950  -32.0600 C.3       1 MOL        -0.0484
      3 CAN        37.4030  -45.0350  -33.3730 C.3       1 MOL        -0.0331
      4 CBF        37.6270  -43.7010  -32.6770 C.3       1 MOL         0.0486
      5 CAZ        38.8850  -42.9200  -32.9890 C.2       1 MOL         0.1790
      6 OAA        39.6440  -43.2440  -33.8980 O.2       1 MOL        -0.3968
      7 NAV        39.0950  -41.8450  -32.2330 N.am      1 MOL        -0.2867
      8 CAI        40.2700  -40.9970  -32.3750 C.3       1 MOL         0.0327
      9 CAG        41.2850  -41.2820  -31.2970 C.3       1 MOL        -0.0125
     10 CAJ        41.7520  -42.7190  -31.2790 C.3       1 MOL         0.0295
     11 NAW        42.4430  -43.0740  -32.5060 N.pl3     1 MOL        -0.3065
     12 C4         43.6730  -42.6320  -32.8080 C.ar      1 MOL         0.1174
     13 N3         44.4220  -42.1220  -31.8260 N.ar      1 MOL        -0.2472
     14 C5         44.1600  -42.7470  -34.1150 C.ar      1 MOL         0.0237
     15 CBG        43.2380  -43.1160  -35.2590 C.3       1 MOL         0.0339
     16 CAO        43.7540  -43.6570  -36.5530 C.2       1 MOL        -0.0644
     17 CAP        43.0210  -44.5440  -35.6390 C.2       1 MOL        -0.0644
     18 C6         45.4720  -42.3580  -34.3010 C.ar      1 MOL        -0.0006
     19 N1         46.2560  -41.8740  -33.3280 N.ar      1 MOL        -0.2816
     20 C2         45.6820  -41.7870  -32.1240 C.ar      1 MOL         0.1847
     21 NAX        46.4550  -41.4770  -31.0570 N.pl3     1 MOL        -0.2510
     22 CBB        46.1360  -41.1370  -29.7400 C.ar      1 MOL         0.0566
     23 CAF        47.0960  -41.1800  -28.7410 C.ar      1 MOL        -0.0329
     24 CAD        44.8640  -40.6840  -29.4420 C.ar      1 MOL        -0.0456
     25 CAB        44.5410  -40.3490  -28.1410 C.ar      1 MOL        -0.0780
     26 CAC        45.4790  -40.4790  -27.1350 C.ar      1 MOL        -0.0670
     27 CBA        46.7650  -40.9050  -27.4190 C.ar      1 MOL        -0.0086
     28 CAS        47.7350  -41.2050  -26.3020 C.3       1 MOL        -0.0006
     29 NBH        48.5990  -40.0760  -25.9360 N.4       1 MOL         0.2502
     30 CAQ        49.1840  -40.2920  -24.6020 C.3       1 MOL        -0.0064
     31 CAK        50.4900  -39.5560  -24.4760 C.3       1 MOL         0.0878
     32 OAY        50.4860  -38.3590  -25.2360 O.3       1 MOL        -0.3693
     33 CAL        50.5010  -38.6690  -26.6200 C.3       1 MOL         0.0878
     34 CAR        49.6820  -39.9060  -26.9290 C.3       1 MOL        -0.0064
     35 H1         38.5573  -44.6643  -30.9163 H         1 MOL         0.0292
     36 H2         36.9514  -43.9318  -30.5832 H         1 MOL         0.0292
     37 H3         35.7950  -45.6088  -31.9674 H         1 MOL         0.0268
     38 H4         37.2935  -46.5850  -31.7994 H         1 MOL         0.0268
     39 H5         36.6537  -45.0071  -34.1778 H         1 MOL         0.0292
     40 H6         38.3214  -45.5137  -33.7435 H         1 MOL         0.0292
     41 H7         36.7806  -43.0125  -32.8171 H         1 MOL         0.0538
     42 H8         38.4164  -41.6095  -31.5373 H         1 MOL         0.1851
     43 H9         39.9617  -39.9433  -32.3072 H         1 MOL         0.0520
     44 H10        40.7290  -41.1823  -33.3573 H         1 MOL         0.0520
     45 H11        40.8326  -41.0500  -30.3216 H         1 MOL         0.0304
     46 H12        42.1584  -40.6334  -31.4598 H         1 MOL         0.0304
     47 H13        40.8783  -43.3764  -31.1588 H         1 MOL         0.0521
     48 H14        42.4371  -42.8607  -30.4302 H         1 MOL         0.0521
     49 H15        41.9662  -43.6944  -33.1759 H         1 MOL         0.1821
     50 H16        42.3906  -42.4147  -35.2682 H         1 MOL         0.0556
     51 H17        44.2861  -43.5047  -37.4909 H         1 MOL         0.0620
     52 H18        42.6149  -45.5275  -35.4072 H         1 MOL         0.0620
     53 H19        45.8936  -42.4499  -35.2954 H         1 MOL         0.0749
     54 H20        47.4662  -41.4951  -31.2523 H         1 MOL         0.2150
     55 H21        48.1195  -41.4317  -28.9942 H         1 MOL         0.0471
     56 H22        44.1222  -40.5919  -30.2270 H         1 MOL         0.0478
     57 H23        43.5476  -39.9827  -27.9087 H         1 MOL         0.0570
     58 H24        45.2050  -40.2449  -26.1126 H         1 MOL         0.0461
     59 H25        48.3758  -42.0418  -26.6169 H         1 MOL         0.0978
     60 H26        47.1575  -41.4996  -25.4134 H         1 MOL         0.0978
     61 H27        48.0416  -39.2364  -25.9158 H         1 MOL         0.2050
     62 H28        49.3585  -41.3677  -24.4527 H         1 MOL         0.0837
     63 H29        48.4854  -39.9241  -23.8361 H         1 MOL         0.0837
     64 H30        51.3024  -40.2049  -24.8351 H         1 MOL         0.0613
     65 H31        50.6598  -39.3073  -23.4180 H         1 MOL         0.0613
     66 H32        51.5406  -38.8427  -26.9347 H         1 MOL         0.0613
     67 H33        50.0857  -37.8181  -27.1799 H         1 MOL         0.0613
     68 H34        49.2406  -39.8059  -27.9315 H         1 MOL         0.0837
     69 H35        50.3375  -40.7890  -26.9035 H         1 MOL         0.0837
@<TRIPOS>BOND
     1    1    2 1  
     2    1    4 1  
     3    2    3 1  
     4    3    4 1  
     5    4    5 1  
     6    5    6 2  
     7    5    7 am 
     8    7    8 1  
     9    8    9 1  
    10    9   10 1  
    11   10   11 1  
    12   11   12 1  
    13   12   13 ar 
    14   12   14 ar 
    15   13   20 ar 
    16   14   15 1  
    17   14   18 ar 
    18   15   16 1  
    19   15   17 1  
    20   16   17 2  
    21   18   19 ar 
    22   19   20 ar 
    23   20   21 1  
    24   21   22 1  
    25   22   23 ar 
    26   22   24 ar 
    27   23   27 ar 
    28   24   25 ar 
    29   25   26 ar 
    30   26   27 ar 
    31   27   28 1  
    32   28   29 1  
    33   29   30 1  
    34   29   34 1  
    35   30   31 1  
    36   31   32 1  
    37   32   33 1  
    38   33   34 1  
    39    1   35 1  
    40    1   36 1  
    41    2   37 1  
    42    2   38 1  
    43    3   39 1  
    44    3   40 1  
    45    4   41 1  
    46    7   42 1  
    47    8   43 1  
    48    8   44 1  
    49    9   45 1  
    50    9   46 1  
    51   10   47 1  
    52   10   48 1  
    53   11   49 1  
    54   15   50 1  
    55   16   51 1  
    56   17   52 1  
    57   18   53 1  
    58   21   54 1  
    59   23   55 1  
    60   24   56 1  
    61   25   57 1  
    62   26   58 1  
    63   28   59 1  
    64   28   60 1  
    65   29   61 1  
    66   30   62 1  
    67   30   63 1  
    68   31   64 1  
    69   31   65 1  
    70   33   66 1  
    71   33   67 1  
    72   34   68 1  
    73   34   69 1  
@<TRIPOS>SUBSTRUCTURE
     1 MOL         1

