### 
### Created by X-TOOL on Mon Aug  2 16:16:29 2021
### 

@<TRIPOS>MOLECULE
6qav_ligand
   65    69     1     0     0
SMALL
GAST_HUCK


@<TRIPOS>ATOM
      1 N1       -102.2450   -2.1360  -58.2030 N.pl3     1 HVH        -0.3066
      2 C2        -97.3920   -0.4750  -57.6490 C.3       1 HVH        -0.0331
      3 N3       -106.6080   -0.9130  -58.4580 N.pl3     1 HVH        -0.2546
      4 C4        -96.7440   -2.5260  -57.5340 C.3       1 HVH        -0.0331
      5 N4       -105.7040    5.1160  -56.3430 N.4       1 HVH         0.2439
      6 C5       -101.2220   -1.4890  -55.4140 C.3       1 HVH         0.0327
      7 C6       -101.9950   -0.5410  -56.3180 C.3       1 HVH        -0.0125
      8 O         -99.6100   -2.9330  -57.2170 O.2       1 HVH        -0.3968
      9 C         -99.0970   -2.0350  -56.5180 C.2       1 HVH         0.1790
     10 C1        -97.6780   -1.6220  -56.6840 C.3       1 HVH         0.0486
     11 C3        -96.1130   -1.2560  -58.1250 C.3       1 HVH        -0.0484
     12 N         -99.7810   -1.3600  -55.5870 N.am      1 HVH        -0.2867
     13 C7       -101.8430   -0.7920  -57.8250 C.3       1 HVH         0.0295
     14 C8       -103.5250   -2.5070  -58.3010 C.ar      1 HVH         0.1171
     15 C21      -103.8590   -3.8300  -58.5630 C.ar      1 HVH         0.0235
     16 C22      -102.8060   -4.8820  -58.8650 C.3       1 HVH         0.0339
     17 C24      -102.3030   -5.8130  -57.8100 C.2       1 HVH        -0.0645
     18 C23      -103.1450   -6.3390  -58.8950 C.2       1 HVH        -0.0645
     19 C20      -105.1980   -4.0780  -58.7400 C.ar      1 HVH        -0.0008
     20 N5       -106.1480   -3.1440  -58.6890 N.ar      1 HVH        -0.2821
     21 C9       -105.7120   -1.9160  -58.4150 C.ar      1 HVH         0.1832
     22 N2       -104.4490   -1.5620  -58.2170 N.ar      1 HVH        -0.2476
     23 C10      -106.5680    0.4470  -58.1370 C.ar      1 HVH         0.0500
     24 C19      -107.5880    1.2530  -58.6180 C.ar      1 HVH        -0.0517
     25 C18      -107.5450    2.6190  -58.4150 C.ar      1 HVH        -0.0710
     26 C13      -106.5290    3.2000  -57.6690 C.ar      1 HVH        -0.0076
     27 C14      -106.4460    4.7000  -57.5400 C.3       1 HVH        -0.0055
     28 C15      -105.5140    6.5950  -56.3400 C.3       1 HVH        -0.0418
     29 C16      -104.4110    4.4310  -56.2820 C.3       1 HVH        -0.0226
     30 C17      -104.6010    2.9410  -56.0680 C.3       1 HVH         0.0166
     31 C12      -105.5700    2.3750  -57.0660 C.ar      1 HVH        -0.0402
     32 C11      -105.5850    1.0040  -57.3300 C.ar      1 HVH        -0.0433
     33 H1       -101.5127   -2.8320  -58.4038 H         1 HVH         0.1821
     34 H2        -97.1823    0.4887  -57.1619 H         1 HVH         0.0292
     35 H3        -98.1557   -0.3337  -58.4279 H         1 HVH         0.0292
     36 H4       -107.5296   -1.2149  -58.8051 H         1 HVH         0.2133
     37 H5        -97.2670   -3.1571  -58.2676 H         1 HVH         0.0292
     38 H6        -96.0517   -3.1453  -56.9448 H         1 HVH         0.0292
     39 H7       -106.2400    4.8606  -55.5284 H         1 HVH         0.2043
     40 H8       -101.5162   -2.5224  -55.6497 H         1 HVH         0.0520
     41 H9       -101.4747   -1.2655  -54.3670 H         1 HVH         0.0520
     42 H10      -101.6508    0.4826  -56.1088 H         1 HVH         0.0304
     43 H11      -103.0623   -0.6277  -56.0662 H         1 HVH         0.0304
     44 H12       -97.2767   -1.4363  -55.6768 H         1 HVH         0.0538
     45 H13       -95.1773   -0.9413  -57.6399 H         1 HVH         0.0268
     46 H14       -95.9706   -1.2803  -59.2155 H         1 HVH         0.0268
     47 H15       -99.2810   -0.7394  -54.9830 H         1 HVH         0.1851
     48 H16      -102.4689   -0.0693  -58.3689 H         1 HVH         0.0521
     49 H17      -100.7888   -0.6465  -58.1033 H         1 HVH         0.0521
     50 H18      -102.1032   -4.4735  -59.6060 H         1 HVH         0.0555
     51 H19      -101.7296   -5.9804  -56.8994 H         1 HVH         0.0620
     52 H20      -103.6486   -7.1781  -59.3726 H         1 HVH         0.0620
     53 H21      -105.5025   -5.1001  -58.9339 H         1 HVH         0.0749
     54 H22      -108.4202    0.8112  -59.1540 H         1 HVH         0.0461
     55 H23      -108.3169    3.2468  -58.8451 H         1 HVH         0.0512
     56 H24      -105.9390    5.1039  -58.4287 H         1 HVH         0.0942
     57 H25      -107.4663    5.1071  -57.4831 H         1 HVH         0.0942
     58 H26      -104.9574    6.8913  -55.4387 H         1 HVH         0.0778
     59 H27      -106.4959    7.0909  -56.3441 H         1 HVH         0.0778
     60 H28      -104.9485    6.8939  -57.2349 H         1 HVH         0.0778
     61 H29      -103.8234    4.8431  -55.4484 H         1 HVH         0.0836
     62 H30      -103.8715    4.5938  -57.2267 H         1 HVH         0.0836
     63 H31      -104.9884    2.7696  -55.0529 H         1 HVH         0.0462
     64 H32      -103.6311    2.4345  -56.1807 H         1 HVH         0.0462
     65 H33      -104.8204    0.3672  -56.9000 H         1 HVH         0.0455
@<TRIPOS>BOND
     1    1   13 1  
     2   14    1 1  
     3   10    2 1  
     4    2   11 1  
     5    3   21 1  
     6   23    3 1  
     7   10    4 1  
     8    4   11 1  
     9   27    5 1  
    10    5   28 1  
    11    5   29 1  
    12    7    6 1  
    13    6   12 1  
    14   13    7 1  
    15    9    8 2  
    16    9   10 1  
    17   12    9 am 
    18   14   15 ar 
    19   22   14 ar 
    20   15   16 1  
    21   19   15 ar 
    22   16   17 1  
    23   16   18 1  
    24   18   17 2  
    25   20   19 ar 
    26   21   20 ar 
    27   21   22 ar 
    28   24   23 ar 
    29   23   32 ar 
    30   25   24 ar 
    31   26   25 ar 
    32   26   27 1  
    33   26   31 ar 
    34   29   30 1  
    35   30   31 1  
    36   31   32 ar 
    37    1   33 1  
    38    2   34 1  
    39    2   35 1  
    40    3   36 1  
    41    4   37 1  
    42    4   38 1  
    43    5   39 1  
    44    6   40 1  
    45    6   41 1  
    46    7   42 1  
    47    7   43 1  
    48   10   44 1  
    49   11   45 1  
    50   11   46 1  
    51   12   47 1  
    52   13   48 1  
    53   13   49 1  
    54   16   50 1  
    55   17   51 1  
    56   18   52 1  
    57   19   53 1  
    58   24   54 1  
    59   25   55 1  
    60   27   56 1  
    61   27   57 1  
    62   28   58 1  
    63   28   59 1  
    64   28   60 1  
    65   29   61 1  
    66   29   62 1  
    67   30   63 1  
    68   30   64 1  
    69   32   65 1  
@<TRIPOS>SUBSTRUCTURE
     1 HVH         1

