### 
### Created by X-TOOL on Mon Aug  2 16:11:29 2021
### 

@<TRIPOS>MOLECULE
6qcj_ligand
   50    53     1     0     0
SMALL
GAST_HUCK


@<TRIPOS>ATOM
      1 OAA       -21.8910   27.1130   16.1370 O.2       1 XEG        -0.3624
      2 OAB       -28.2050   28.7200   16.6740 O.3       1 XEG        -0.3427
      3 OAC       -25.9870   20.8880   20.1820 O.3       1 XEG        -0.3414
      4 OAD       -23.5720   20.7910   19.2270 O.3       1 XEG        -0.3385
      5 OAE       -17.4130   28.2700   14.4120 O.3       1 XEG        -0.3389
      6 OAF       -17.6760   30.8320   18.2670 O.3       1 XEG        -0.3389
      7 OAG       -26.2020   28.7460   21.0060 O.3       1 XEG        -0.3424
      8 OAH       -16.3990   30.0160   16.1040 O.3       1 XEG        -0.3381
      9 CAI       -26.0120   23.3490   19.9120 C.ar      1 XEG        -0.0481
     10 CAJ       -25.3470   24.5060   19.4580 C.ar      1 XEG        -0.0772
     11 CAK       -27.2390   28.7680   18.8650 C.ar      1 XEG        -0.0228
     12 CAL       -19.4460   28.0830   15.7710 C.ar      1 XEG        -0.0312
     13 CAM       -19.6200   29.3720   17.8010 C.ar      1 XEG        -0.0312
     14 CAN       -26.1760   27.6270   17.0220 C.ar      1 XEG        -0.0224
     15 CAO       -23.4820   23.1830   18.8360 C.ar      1 XEG        -0.0372
     16 CAP       -23.9330   27.1960   20.0090 C.3       1 XEG         0.0069
     17 OAQ       -22.1780   27.8980   18.2580 O.3       1 XEG        -0.2697
     18 OAR       -24.1460   26.4540   17.3170 O.3       1 XEG        -0.3103
     19 CAS       -21.4950   27.7500   17.0670 C.2       1 XEG         0.2505
     20 CAT       -27.2150   28.3760   17.5330 C.ar      1 XEG         0.0640
     21 CAU       -25.4170   22.0940   19.8200 C.ar      1 XEG         0.1088
     22 CAV       -24.1670   22.0340   19.2280 C.ar      1 XEG         0.1099
     23 CAW       -18.1850   28.5980   15.5070 C.ar      1 XEG         0.1141
     24 CAX       -18.3500   29.9100   17.5130 C.ar      1 XEG         0.1141
     25 CAY       -26.1970   28.3660   19.6980 C.ar      1 XEG         0.0729
     26 CAZ       -20.1760   28.4560   16.9110 C.ar      1 XEG         0.0337
     27 CBA       -24.0570   24.4640   18.9100 C.ar      1 XEG        -0.0269
     28 CBB       -17.6400   29.5260   16.3770 C.ar      1 XEG         0.1498
     29 CBC       -25.1460   27.2440   17.8610 C.ar      1 XEG         0.0794
     30 CBD       -25.1410   27.5880   19.2020 C.ar      1 XEG         0.0065
     31 CBE       -22.7650   26.7780   19.1100 C.3       1 XEG         0.1293
     32 CBF       -23.3110   25.6600   18.2720 C.3       1 XEG         0.1371
     33 H1        -28.0149   28.3633   15.8143 H         1 XEG         0.2455
     34 H2        -25.3692   20.1852   20.0182 H         1 XEG         0.2420
     35 H3        -24.1979   20.1413   19.5246 H         1 XEG         0.2442
     36 H4        -16.5932   28.7487   14.4491 H         1 XEG         0.2437
     37 H5        -16.8429   31.0283   17.8549 H         1 XEG         0.2437
     38 H6        -25.4321   28.3964   21.4391 H         1 XEG         0.2451
     39 H7        -16.1503   30.6384   16.7773 H         1 XEG         0.2422
     40 H8        -27.0039   23.4381   20.3402 H         1 XEG         0.0492
     41 H9        -25.8510   25.4626   19.5353 H         1 XEG         0.0437
     42 H10       -28.0516   29.3742   19.2487 H         1 XEG         0.0359
     43 H11       -19.8801   27.3722   15.0772 H         1 XEG         0.0477
     44 H12       -20.1539   29.6652   18.6977 H         1 XEG         0.0477
     45 H13       -26.1670   27.3422   15.9761 H         1 XEG         0.0359
     46 H14       -22.4697   23.0854   18.4607 H         1 XEG         0.0451
     47 H15       -24.1992   26.3528   20.6633 H         1 XEG         0.0390
     48 H16       -23.6211   28.0531   20.6239 H         1 XEG         0.0390
     49 H17       -21.9536   26.3920   19.7445 H         1 XEG         0.0714
     50 H18       -22.4675   25.2103   17.7276 H         1 XEG         0.0820
@<TRIPOS>BOND
     1   19    1 2  
     2   20    2 1  
     3   21    3 1  
     4   22    4 1  
     5   23    5 1  
     6   24    6 1  
     7   25    7 1  
     8   28    8 1  
     9   10    9 ar 
    10    9   21 ar 
    11   27   10 ar 
    12   20   11 ar 
    13   11   25 ar 
    14   12   23 ar 
    15   26   12 ar 
    16   13   24 ar 
    17   26   13 ar 
    18   14   20 ar 
    19   29   14 ar 
    20   15   22 ar 
    21   27   15 ar 
    22   30   16 1  
    23   16   31 1  
    24   17   19 1  
    25   31   17 1  
    26   18   29 1  
    27   32   18 1  
    28   19   26 1  
    29   22   21 ar 
    30   23   28 ar 
    31   24   28 ar 
    32   25   30 ar 
    33   27   32 1  
    34   29   30 ar 
    35   31   32 1  
    36    2   33 1  
    37    3   34 1  
    38    4   35 1  
    39    5   36 1  
    40    6   37 1  
    41    7   38 1  
    42    8   39 1  
    43    9   40 1  
    44   10   41 1  
    45   11   42 1  
    46   12   43 1  
    47   13   44 1  
    48   14   45 1  
    49   15   46 1  
    50   16   47 1  
    51   16   48 1  
    52   31   49 1  
    53   32   50 1  
@<TRIPOS>SUBSTRUCTURE
     1 XEG         1

