### 
### Created by X-TOOL on Mon Aug  2 16:16:30 2021
### 

@<TRIPOS>MOLECULE
6qdx_ligand
   87    92     1     0     0
SMALL
GAST_HUCK


@<TRIPOS>ATOM
      1 C4         10.0680    5.2380   17.1780 C.3       1 HY8         0.2010
      2 C14        14.9110    0.8100   19.5750 C.3       1 HY8        -0.0023
      3 C5         10.2150    8.7280   17.5740 C.3       1 HY8         0.0730
      4 C6         11.2280    3.4120   15.7100 C.ar      1 HY8         0.1613
      5 C11        13.9500   -0.1200   16.3360 C.3       1 HY8         0.0345
      6 C7         12.1920    2.4300   15.9590 C.ar      1 HY8         0.1047
      7 C8         11.8050    3.5420   17.7990 C.2       1 HY8         0.1123
      8 C9         11.1120    2.7030   13.5050 C.ar      1 HY8         0.0533
      9 C10        12.5990    1.5770   14.8920 C.ar      1 HY8         0.1323
     10 C12        15.3990    0.1940   16.7500 C.3       1 HY8         0.0080
     11 C13        15.9090   -0.7580   17.8520 C.3       1 HY8        -0.0299
     12 N1         10.9960    4.0620   16.8770 N.pl3     1 HY8        -0.1919
     13 N2         12.5270    2.5560   17.2690 N.2       1 HY8        -0.2957
     14 C3          8.7970    5.1850   17.3890 C.3       1 HY8         0.1385
     15 N3         10.7090    3.5250   14.4740 N.ar      1 HY8        -0.2714
     16 C1          9.7930    7.2130   17.5680 C.3       1 HY8         0.1135
     17 C15        15.4900   -1.3960   20.1590 C.3       1 HY8        -0.0250
     18 C16        16.7630   -1.9480   20.8210 C.3       1 HY8         0.0425
     19 C17        16.6290   -2.2380   22.3300 C.3       1 HY8         0.0332
     20 C18        17.1640   -1.0040   23.0210 C.2       1 HY8         0.0846
     21 C19        15.4810    2.2890   19.4750 C.3       1 HY8         0.1300
     22 C2          8.5840    6.8050   17.7660 C.3       1 HY8         0.1146
     23 C20        15.6920    3.0260   20.5580 C.3       1 HY8         0.1174
     24 C21        16.7370    4.2290   19.9830 C.3       1 HY8         0.1386
     25 C22        16.8100    4.0220   18.7480 C.3       1 HY8         0.2011
     26 C23        15.4720    4.6420   16.7120 C.ar      1 HY8         0.1613
     27 C24        14.3250    5.3770   16.4680 C.ar      1 HY8         0.1045
     28 C25        14.6890    5.3810   18.6070 C.2       1 HY8         0.1123
     29 C26        15.7050    4.2310   14.4360 C.ar      1 HY8         0.0533
     30 C27        13.9050    5.5130   15.1290 C.ar      1 HY8         0.1298
     31 N10        16.1270    4.0870   15.6800 N.ar      1 HY8        -0.2714
     32 N11        14.6080    4.9300   14.1620 N.ar      1 HY8        -0.2698
     33 N12        12.7240    6.2630   14.8130 N.pl3     1 HY8        -0.3152
     34 N4         12.0340    1.7530   13.6970 N.ar      1 HY8        -0.2696
     35 N5         13.6290    0.5120   15.0480 N.pl3     1 HY8        -0.3010
     36 N6         15.8750   -0.2610   19.2570 N.4       1 HY8         0.2374
     37 N7         15.2790   -2.5570   22.7550 N.4       1 HY8         0.2328
     38 N8         15.6680    4.6680   18.0500 N.pl3     1 HY8        -0.1919
     39 N9         13.8680    5.8150   17.6610 N.2       1 HY8        -0.2958
     40 O1         10.2050    6.4900   16.2670 O.3       1 HY8        -0.3368
     41 O2         11.6090    8.6070   17.8850 O.3       1 HY8        -0.3924
     42 O3          7.6010    7.3700   16.8520 O.3       1 HY8        -0.3864
     43 O4          7.9720    4.8970   16.2000 O.3       1 HY8        -0.3836
     44 O5         18.1830   -0.4550   22.4940 O.co2     1 HY8        -0.5643
     45 O6         16.6050   -0.5540   24.0770 O.co2     1 HY8        -0.5643
     46 O7         16.7430    2.4110   18.6170 O.3       1 HY8        -0.3338
     47 O8         16.3310    2.4280   21.6880 O.3       1 HY8        -0.3863
     48 O9         18.0410    4.0290   20.6120 O.3       1 HY8        -0.3836
     49 H1         10.4642    5.5544   18.1542 H         1 HY8         0.0996
     50 H2         14.0653    0.7240   18.8769 H         1 HY8         0.0841
     51 H3         14.5549    0.6520   20.6037 H         1 HY8         0.0841
     52 H4          9.6746    9.2975   18.3444 H         1 HY8         0.0584
     53 H5         10.0569    9.1980   16.5921 H         1 HY8         0.0584
     54 H6         13.2636    0.2614   17.1063 H         1 HY8         0.0527
     55 H7         13.8288   -1.2094   16.2438 H         1 HY8         0.0527
     56 H8         11.8669    3.8743   18.8342 H         1 HY8         0.1349
     57 H9         10.6738    2.8089   12.5192 H         1 HY8         0.0996
     58 H10        15.4444    1.2270   17.1253 H         1 HY8         0.0337
     59 H11        16.0488    0.0954   15.8680 H         1 HY8         0.0337
     60 H12        16.9539   -1.0071   17.6153 H         1 HY8         0.0815
     61 H13        15.2959   -1.6703   17.8098 H         1 HY8         0.0815
     62 H14         8.5389    4.4973   18.2078 H         1 HY8         0.0676
     63 H15        10.3821    6.7784   18.3891 H         1 HY8         0.0647
     64 H16        14.7960   -1.0358   20.9327 H         1 HY8         0.0817
     65 H17        15.0043   -2.1886   19.5709 H         1 HY8         0.0817
     66 H18        17.5681   -1.2112   20.6836 H         1 HY8         0.0391
     67 H19        17.0339   -2.8860   20.3143 H         1 HY8         0.0391
     68 H20        17.2660   -3.0985   22.5826 H         1 HY8         0.1026
     69 H21        14.6901    2.8238   18.9287 H         1 HY8         0.0678
     70 H22         8.2639    6.9665   18.8059 H         1 HY8         0.0648
     71 H23        14.7341    3.4510   20.8924 H         1 HY8         0.0649
     72 H24        16.3547    5.2381   20.1964 H         1 HY8         0.0676
     73 H25        17.7559    4.4072   18.3395 H         1 HY8         0.0996
     74 H26        14.5806    5.5764   19.6728 H         1 HY8         0.1349
     75 H27        16.2617    3.7722   13.6269 H         1 HY8         0.0996
     76 H28        12.4218    6.3591   13.8330 H         1 HY8         0.1820
     77 H29        12.1781    6.7055   15.5660 H         1 HY8         0.1820
     78 H30        14.1426    0.2026   14.2105 H         1 HY8         0.1856
     79 H31        16.8003    0.0664   19.4866 H         1 HY8         0.2034
     80 H32        15.2720   -2.7331   23.7475 H         1 HY8         0.2010
     81 H33        14.9579   -3.3778   22.2659 H         1 HY8         0.2010
     82 H34        14.6692   -1.7818   22.5470 H         1 HY8         0.2010
     83 H35        12.0005    9.4719   17.9213 H         1 HY8         0.2095
     84 H36         7.8297    7.1378   15.9597 H         1 HY8         0.2100
     85 H37         8.0716    3.9830   15.9606 H         1 HY8         0.2101
     86 H38        16.4814    3.0901   22.3525 H         1 HY8         0.2100
     87 H39        17.9689    4.1893   21.5456 H         1 HY8         0.2101
@<TRIPOS>BOND
     1   12    1 1  
     2    1   14 1  
     3    1   40 1  
     4   21    2 1  
     5    2   36 1  
     6   16    3 1  
     7    3   41 1  
     8    6    4 ar 
     9    4   12 1  
    10    4   15 ar 
    11   10    5 1  
    12    5   35 1  
    13    9    6 ar 
    14    6   13 1  
    15    7   12 1  
    16   13    7 2  
    17    8   15 ar 
    18   34    8 ar 
    19    9   34 ar 
    20   35    9 1  
    21   11   10 1  
    22   36   11 1  
    23   14   22 1  
    24   14   43 1  
    25   16   22 1  
    26   40   16 1  
    27   17   18 1  
    28   36   17 1  
    29   18   19 1  
    30   19   20 1  
    31   19   37 1  
    32   20   44 ar 
    33   20   45 ar 
    34   21   23 1  
    35   46   21 1  
    36   22   42 1  
    37   24   23 1  
    38   23   47 1  
    39   25   24 1  
    40   24   48 1  
    41   38   25 1  
    42   25   46 1  
    43   26   27 ar 
    44   26   31 ar 
    45   26   38 1  
    46   27   30 ar 
    47   27   39 1  
    48   38   28 1  
    49   28   39 2  
    50   31   29 ar 
    51   29   32 ar 
    52   30   32 ar 
    53   30   33 1  
    54    1   49 1  
    55    2   50 1  
    56    2   51 1  
    57    3   52 1  
    58    3   53 1  
    59    5   54 1  
    60    5   55 1  
    61    7   56 1  
    62    8   57 1  
    63   10   58 1  
    64   10   59 1  
    65   11   60 1  
    66   11   61 1  
    67   14   62 1  
    68   16   63 1  
    69   17   64 1  
    70   17   65 1  
    71   18   66 1  
    72   18   67 1  
    73   19   68 1  
    74   21   69 1  
    75   22   70 1  
    76   23   71 1  
    77   24   72 1  
    78   25   73 1  
    79   28   74 1  
    80   29   75 1  
    81   33   76 1  
    82   33   77 1  
    83   35   78 1  
    84   36   79 1  
    85   37   80 1  
    86   37   81 1  
    87   37   82 1  
    88   41   83 1  
    89   42   84 1  
    90   43   85 1  
    91   47   86 1  
    92   48   87 1  
@<TRIPOS>SUBSTRUCTURE
     1 HY8         1

