### 
### Created by X-TOOL on Mon Aug  2 16:16:30 2021
### 

@<TRIPOS>MOLECULE
6qe0_ligand
   84    89     1     0     0
SMALL
GAST_HUCK


@<TRIPOS>ATOM
      1 O22       -21.8730   -8.7950    8.0410 O.3       1 HZ2        -0.3836
      2 O32       -17.2080   -2.8310    1.5400 O.3       1 HZ2        -0.3836
      3 C02       -12.1670   -4.8800    5.3510 C.3       1 HZ2         0.0332
      4 C03       -13.3710   -5.8060    5.2880 C.3       1 HZ2         0.0425
      5 C04       -13.6510   -6.3750    3.8340 C.3       1 HZ2        -0.0249
      6 C06       -14.9270   -8.2290    2.6930 C.3       1 HZ2        -0.0108
      7 C07       -16.3480   -8.8330    2.4150 C.3       1 HZ2         0.0697
      8 C09       -18.2070  -10.3760    3.4010 C.ar      1 HZ2         0.1325
      9 C10       -19.0790   -9.5480    4.2110 C.ar      1 HZ2         0.1047
     10 C12       -20.0320   -8.0500    5.4740 C.2       1 HZ2         0.1123
     11 C14       -22.4220   -8.9460    5.5910 C.3       1 HZ2         0.2010
     12 C16       -24.0510   -7.1960    5.8600 C.3       1 HZ2         0.1135
     13 C17       -23.3680   -5.8530    5.4650 C.3       1 HZ2         0.0730
     14 C19       -23.6950   -7.5390    7.1140 C.3       1 HZ2         0.1146
     15 C21       -22.2550   -8.0610    6.9050 C.3       1 HZ2         0.1385
     16 C23       -20.4120   -9.9000    4.3840 C.ar      1 HZ2         0.1613
     17 C25       -20.0740  -11.7550    3.0520 C.ar      1 HZ2         0.0533
     18 C27       -16.1800   -6.4510    4.0650 C.3       1 HZ2        -0.0022
     19 C28       -16.3840   -5.2640    3.0340 C.3       1 HZ2         0.1300
     20 C30       -18.2370   -5.0530    1.5180 C.3       1 HZ2         0.2011
     21 C31       -17.9940   -3.7370    2.3350 C.3       1 HZ2         0.1386
     22 C33       -17.2150   -4.2910    3.5330 C.3       1 HZ2         0.1174
     23 C36       -20.3650   -5.4320    2.8290 C.2       1 HZ2         0.1123
     24 C38       -21.0380   -7.3170    1.9860 C.ar      1 HZ2         0.1045
     25 C39       -21.6140   -8.5170    1.5660 C.ar      1 HZ2         0.1298
     26 C42       -19.8640   -8.8410    0.0550 C.ar      1 HZ2         0.0533
     27 C44       -19.8270   -6.9520    1.3710 C.ar      1 HZ2         0.1613
     28 C45       -12.4870   -3.4730    4.8380 C.2       1 HZ2         0.0846
     29 N01       -11.7000   -4.8080    6.7490 N.4       1 HZ2         0.2328
     30 N05       -14.9000   -7.2480    3.8690 N.4       1 HZ2         0.2388
     31 N08       -16.7650  -10.0350    3.1930 N.pl3     1 HZ2        -0.2961
     32 N11       -18.8890   -8.4020    4.9010 N.2       1 HZ2        -0.2957
     33 N13       -20.9640   -8.9590    5.1920 N.pl3     1 HZ2        -0.1919
     34 N24       -20.9050  -11.0110    3.7890 N.ar      1 HZ2        -0.2714
     35 N26       -18.7680  -11.4430    2.8740 N.ar      1 HZ2        -0.2696
     36 N35       -19.4450   -5.8010    1.9120 N.pl3     1 HZ2        -0.1919
     37 N37       -21.3290   -6.3500    2.8860 N.2       1 HZ2        -0.2958
     38 N40       -22.8770   -9.0040    2.1220 N.pl3     1 HZ2        -0.3152
     39 N41       -21.0020   -9.2350    0.6140 N.ar      1 HZ2        -0.2698
     40 N43       -19.2690   -7.7210    0.4200 N.ar      1 HZ2        -0.2714
     41 O15       -23.4340   -8.3850    4.9440 O.3       1 HZ2        -0.3368
     42 O18       -23.7890   -5.5330    4.2000 O.3       1 HZ2        -0.3924
     43 O20       -24.5540   -8.5950    7.5860 O.3       1 HZ2        -0.3864
     44 O29       -17.1540   -5.8100    1.7160 O.3       1 HZ2        -0.3338
     45 O34       -16.5440   -3.2670    4.1780 O.3       1 HZ2        -0.3863
     46 O46       -12.3880   -3.2060    3.5630 O.co2     1 HZ2        -0.5643
     47 O47       -12.8600   -2.5420    5.6700 O.co2     1 HZ2        -0.5643
     48 H1        -21.0378   -9.2174    7.8777 H         1 HZ2         0.2101
     49 H2        -17.0571   -2.0311    2.0297 H         1 HZ2         0.2101
     50 H3        -11.3667   -5.3028    4.7258 H         1 HZ2         0.1026
     51 H4        -14.2584   -5.2478    5.6210 H         1 HZ2         0.0391
     52 H5        -13.1951   -6.6537    5.9665 H         1 HZ2         0.0391
     53 H6        -12.7914   -6.9759    3.5023 H         1 HZ2         0.0817
     54 H7        -13.8057   -5.5395    3.1355 H         1 HZ2         0.0817
     55 H8        -14.5910   -7.6989    1.7896 H         1 HZ2         0.0835
     56 H9        -14.2344   -9.0549    2.9125 H         1 HZ2         0.0835
     57 H10       -16.3847   -9.1047    1.3497 H         1 HZ2         0.0578
     58 H11       -17.0846   -8.0415    2.6172 H         1 HZ2         0.0578
     59 H12       -20.1847   -7.1580    6.0798 H         1 HZ2         0.1349
     60 H13       -22.7224   -9.9821    5.8062 H         1 HZ2         0.0996
     61 H14       -25.1434   -7.1218    5.7540 H         1 HZ2         0.0647
     62 H15       -22.2743   -5.9696    5.4785 H         1 HZ2         0.0584
     63 H16       -23.6611   -5.0610    6.1699 H         1 HZ2         0.0584
     64 H17       -23.7255   -6.6823    7.8033 H         1 HZ2         0.0648
     65 H18       -21.5398   -7.2421    6.7384 H         1 HZ2         0.0676
     66 H19       -20.4627  -12.6478    2.5756 H         1 HZ2         0.0996
     67 H20       -17.0315   -7.1404    3.9671 H         1 HZ2         0.0841
     68 H21       -16.1672   -6.0258    5.0794 H         1 HZ2         0.0841
     69 H22       -15.4056   -4.8367    2.7692 H         1 HZ2         0.0678
     70 H23       -18.3247   -4.7986    0.4514 H         1 HZ2         0.0996
     71 H24       -18.9320   -3.2535    2.6454 H         1 HZ2         0.0676
     72 H25       -17.9129   -4.7495    4.2490 H         1 HZ2         0.0649
     73 H26       -20.3252   -4.5242    3.4293 H         1 HZ2         0.1349
     74 H27       -19.4137   -9.4528   -0.7183 H         1 HZ2         0.0996
     75 H28       -10.9008   -4.1963    6.8052 H         1 HZ2         0.2010
     76 H29       -11.4406   -5.7295    7.0645 H         1 HZ2         0.2010
     77 H30       -12.4395   -4.4489    7.3323 H         1 HZ2         0.2010
     78 H31       -14.8148   -7.8189    4.6954 H         1 HZ2         0.2035
     79 H32       -16.0416  -10.6464    3.5977 H         1 HZ2         0.1858
     80 H33       -23.2763   -9.8938    1.7909 H         1 HZ2         0.1820
     81 H34       -23.3666   -8.4569    2.8444 H         1 HZ2         0.1820
     82 H35       -23.5361   -6.2239    3.5991 H         1 HZ2         0.2095
     83 H36       -24.2229   -8.9253    8.4129 H         1 HZ2         0.2100
     84 H37       -17.1712   -2.6224    4.4841 H         1 HZ2         0.2100
@<TRIPOS>BOND
     1   15    1 1  
     2   21    2 1  
     3    4    3 1  
     4    3   28 1  
     5    3   29 1  
     6    5    4 1  
     7   30    5 1  
     8    6    7 1  
     9   30    6 1  
    10    7   31 1  
    11    8    9 ar 
    12   31    8 1  
    13    8   35 ar 
    14    9   16 ar 
    15    9   32 1  
    16   32   10 2  
    17   10   33 1  
    18   11   15 1  
    19   33   11 1  
    20   11   41 1  
    21   12   13 1  
    22   12   14 1  
    23   41   12 1  
    24   13   42 1  
    25   15   14 1  
    26   14   43 1  
    27   16   33 1  
    28   16   34 ar 
    29   17   34 ar 
    30   35   17 ar 
    31   19   18 1  
    32   18   30 1  
    33   19   22 1  
    34   44   19 1  
    35   20   21 1  
    36   36   20 1  
    37   20   44 1  
    38   21   22 1  
    39   22   45 1  
    40   23   36 1  
    41   37   23 2  
    42   24   25 ar 
    43   24   27 ar 
    44   24   37 1  
    45   25   38 1  
    46   25   39 ar 
    47   39   26 ar 
    48   26   40 ar 
    49   27   36 1  
    50   27   40 ar 
    51   28   46 ar 
    52   28   47 ar 
    53    1   48 1  
    54    2   49 1  
    55    3   50 1  
    56    4   51 1  
    57    4   52 1  
    58    5   53 1  
    59    5   54 1  
    60    6   55 1  
    61    6   56 1  
    62    7   57 1  
    63    7   58 1  
    64   10   59 1  
    65   11   60 1  
    66   12   61 1  
    67   13   62 1  
    68   13   63 1  
    69   14   64 1  
    70   15   65 1  
    71   17   66 1  
    72   18   67 1  
    73   18   68 1  
    74   19   69 1  
    75   20   70 1  
    76   21   71 1  
    77   22   72 1  
    78   23   73 1  
    79   26   74 1  
    80   29   75 1  
    81   29   76 1  
    82   29   77 1  
    83   30   78 1  
    84   31   79 1  
    85   38   80 1  
    86   38   81 1  
    87   42   82 1  
    88   43   83 1  
    89   45   84 1  
@<TRIPOS>SUBSTRUCTURE
     1 HZ2         1

