### 
### Created by X-TOOL on Mon Aug  2 16:16:30 2021
### 

@<TRIPOS>MOLECULE
6qe5_ligand
   46    48     1     0     0
SMALL
GAST_HUCK


@<TRIPOS>ATOM
      1 N          -4.9740    1.7740    3.1050 N.4       1 SAH         0.2327
      2 CA         -5.8760    0.7600    3.6630 C.3       1 SAH         0.0291
      3 CB         -7.1510    0.5830    2.8310 C.3       1 SAH         0.0114
      4 CG         -7.9160    1.8540    2.4440 C.3       1 SAH         0.0005
      5 SD         -9.3800    1.4390    1.4610 S.3       1 SAH        -0.1578
      6 C          -5.1400   -0.5760    3.7690 C.2       1 SAH         0.0844
      7 O          -4.2200   -0.8350    2.9930 O.co2     1 SAH        -0.5643
      8 OXT        -5.4420   -1.4010    4.6340 O.co2     1 SAH        -0.5643
      9 C5'        -9.8510    3.1720    1.1200 C.3       1 SAH         0.0226
     10 C4'       -10.3860    3.9030    2.3510 C.3       1 SAH         0.0995
     11 O4'       -10.5740    5.2910    2.0990 O.3       1 SAH        -0.3383
     12 C3'       -11.7410    3.4260    2.8840 C.3       1 SAH         0.1132
     13 O3'       -11.5370    3.0120    4.2190 O.3       1 SAH        -0.3864
     14 C2'       -12.6390    4.6640    2.8220 C.3       1 SAH         0.1385
     15 O2'       -13.5770    4.7770    3.8660 O.3       1 SAH        -0.3836
     16 C1'       -11.6270    5.7830    2.9390 C.3       1 SAH         0.2009
     17 N9        -11.9340    7.0660    2.3100 N.pl3     1 SAH        -0.1919
     18 C8        -12.7060    7.3360    1.2100 C.2       1 SAH         0.1123
     19 N7        -12.5680    8.6550    0.9230 N.2       1 SAH        -0.2958
     20 C5        -11.7030    9.2120    1.8070 C.ar      1 SAH         0.1045
     21 C6        -11.1890   10.4880    1.9950 C.ar      1 SAH         0.1298
     22 N6        -11.5260   11.5190    1.2160 N.pl3     1 SAH        -0.3152
     23 N1        -10.2910   10.7080    3.0150 N.ar      1 SAH        -0.2698
     24 C2         -9.8900    9.6980    3.8570 C.ar      1 SAH         0.0533
     25 N3        -10.4060    8.4370    3.6650 N.ar      1 SAH        -0.2714
     26 C4        -11.2840    8.2060    2.6680 C.ar      1 SAH         0.1613
     27 H1         -5.4601    2.6543    3.0355 H         1 SAH         0.2010
     28 H2         -4.6695    1.4851    2.1886 H         1 SAH         0.2010
     29 H3         -4.1729    1.8792    3.7076 H         1 SAH         0.2010
     30 H4         -6.1695    1.0820    4.6731 H         1 SAH         0.1024
     31 H5         -7.8375   -0.0537    3.4084 H         1 SAH         0.0347
     32 H6         -6.8701    0.0692    1.8998 H         1 SAH         0.0347
     33 H7         -7.2570    2.5075    1.8536 H         1 SAH         0.0379
     34 H8         -8.2306    2.3795    3.3577 H         1 SAH         0.0379
     35 H9        -10.6309    3.1764    0.3443 H         1 SAH         0.0402
     36 H10        -8.9646    3.7094    0.7519 H         1 SAH         0.0402
     37 H11        -9.6380    3.7776    3.1477 H         1 SAH         0.0632
     38 H12       -12.1552    2.6045    2.2811 H         1 SAH         0.0647
     39 H13       -11.2134    3.7442    4.7305 H         1 SAH         0.2100
     40 H14       -13.1719    4.7004    1.8604 H         1 SAH         0.0676
     41 H15       -13.1201    4.8150    4.6980 H         1 SAH         0.2101
     42 H16       -11.3333    5.9303    3.9888 H         1 SAH         0.0996
     43 H17       -13.3197    6.6206    0.6645 H         1 SAH         0.1349
     44 H18       -11.1211   12.4500    1.3901 H         1 SAH         0.1820
     45 H19       -12.1908   11.3832    0.4411 H         1 SAH         0.1820
     46 H20        -9.1824    9.8909    4.6552 H         1 SAH         0.0996
@<TRIPOS>BOND
     1    1    2 1  
     2    2    3 1  
     3    2    6 1  
     4    3    4 1  
     5    4    5 1  
     6    5    9 1  
     7    6    7 ar 
     8    6    8 ar 
     9    9   10 1  
    10   10   11 1  
    11   10   12 1  
    12   11   16 1  
    13   12   13 1  
    14   12   14 1  
    15   14   15 1  
    16   14   16 1  
    17   16   17 1  
    18   17   18 1  
    19   17   26 1  
    20   18   19 2  
    21   19   20 1  
    22   20   21 ar 
    23   20   26 ar 
    24   21   22 1  
    25   21   23 ar 
    26   23   24 ar 
    27   24   25 ar 
    28   25   26 ar 
    29    1   27 1  
    30    1   28 1  
    31    1   29 1  
    32    2   30 1  
    33    3   31 1  
    34    3   32 1  
    35    4   33 1  
    36    4   34 1  
    37    9   35 1  
    38    9   36 1  
    39   10   37 1  
    40   12   38 1  
    41   13   39 1  
    42   14   40 1  
    43   15   41 1  
    44   16   42 1  
    45   18   43 1  
    46   22   44 1  
    47   22   45 1  
    48   24   46 1  
@<TRIPOS>SUBSTRUCTURE
     1 SAH         1

