### 
### Created by X-TOOL on Mon Aug  2 16:16:30 2021
### 

@<TRIPOS>MOLECULE
6qed_ligand
   49    52     1     0     0
SMALL
GAST_HUCK


@<TRIPOS>ATOM
      1 C1         24.5730   18.1800   15.3980 C.ar      1 HZK        -0.0223
      2 C2         25.9340   18.2860   15.5630 C.ar      1 HZK        -0.0486
      3 C3         26.7040   17.1510   15.6400 C.ar      1 HZK         0.0321
      4 C8         27.3980   21.4230   19.7960 C.ar      1 HZK         0.0513
      5 C10        24.9320   21.8600   19.9440 C.3       1 HZK         0.0546
      6 C11        23.8100   22.1680   18.9330 C.3       1 HZK         0.0158
      7 C12        24.5710   22.3860   17.6090 C.3       1 HZK         0.2310
      8 C13        26.0050   22.0170   17.8920 C.2       1 HZK         0.2557
      9 C15        23.9620   21.5580   16.5100 C.2       1 HZK         0.2346
     10 C19        23.7700   19.4380   15.3330 C.3       1 HZK         0.0635
     11 C21        27.5780   20.3160   20.6110 C.ar      1 HZK        -0.0490
     12 C22        29.6590   22.1080   20.2020 C.ar      1 HZK        -0.0575
     13 C24        29.8520   20.9920   20.9960 C.ar      1 HZK         0.0569
     14 C27        30.4970   18.4340   22.0600 C.3       1 HZK         0.0498
     15 N29        31.1030   20.7880   21.5890 N.am      1 HZK        -0.2437
     16 C4         26.1160   15.9080   15.5570 C.ar      1 HZK        -0.0213
     17 C5         24.7460   15.8070   15.3980 C.ar      1 HZK         0.1264
     18 C6         23.9710   16.9440   15.3220 C.ar      1 HZK        -0.0249
     19 CL7        28.4130   17.3130   15.8450 Cl        1 HZK        -0.0735
     20 N9         26.1780   21.7380   19.1900 N.am      1 HZK        -0.2269
     21 O14        24.5840   23.7670   17.2400 O.3       1 HZK        -0.3828
     22 O16        26.8660   22.0120   17.0500 O.2       1 HZK        -0.3417
     23 N17        24.3210   20.2860   16.3830 N.am      1 HZK        -0.2738
     24 O18        23.1560   22.0290   15.7490 O.2       1 HZK        -0.3452
     25 F20        24.1670   14.6000   15.3190 F         1 HZK        -0.1853
     26 C23        28.4370   22.3230   19.6180 C.ar      1 HZK        -0.0579
     27 C25        28.8130   20.0950   21.1990 C.ar      1 HZK        -0.0288
     28 C26        29.0310   18.8860   22.0700 C.3       1 HZK        -0.0082
     29 C28        31.4470   19.6000   22.1090 C.2       1 HZK         0.2007
     30 O30        32.5430   19.4670   22.6150 O.2       1 HZK        -0.3869
     31 H1         26.3983   19.2631   15.6322 H         1 HZK         0.0528
     32 H2         24.7166   20.9178   20.4693 H         1 HZK         0.0584
     33 H3         25.0138   22.6774   20.6756 H         1 HZK         0.0584
     34 H4         23.2569   23.0736   19.2227 H         1 HZK         0.0290
     35 H5         23.1114   21.3223   18.8507 H         1 HZK         0.0290
     36 H6         22.7066   19.2292   15.5217 H         1 HZK         0.0684
     37 H7         23.8805   19.9179   14.3494 H         1 HZK         0.0684
     38 H8         26.7586   19.6284   20.7869 H         1 HZK         0.0415
     39 H9         30.4699   22.8094   20.0421 H         1 HZK         0.0455
     40 H10        30.6856   17.8608   21.1403 H         1 HZK         0.0526
     41 H11        30.6768   17.7925   22.9353 H         1 HZK         0.0526
     42 H12        31.7554   21.5449   21.6260 H         1 HZK         0.2200
     43 H13        26.7246   15.0129   15.6161 H         1 HZK         0.0552
     44 H14        22.8963   16.8659   15.2034 H         1 HZK         0.0544
     45 H15        24.9361   24.2818   17.9566 H         1 HZK         0.2052
     46 H16        24.9855   19.9003   17.0231 H         1 HZK         0.1882
     47 H17        28.2818   23.2070   19.0101 H         1 HZK         0.0424
     48 H18        28.7417   19.1337   23.1019 H         1 HZK         0.0421
     49 H19        28.4020   18.0628   21.7004 H         1 HZK         0.0421
@<TRIPOS>BOND
     1    1    2 ar 
     2   10    1 1  
     3    1   18 ar 
     4    2    3 ar 
     5    3   16 ar 
     6    3   19 1  
     7   11    4 ar 
     8    4   20 1  
     9   26    4 ar 
    10    5    6 1  
    11   20    5 1  
    12    7    6 1  
    13    8    7 1  
    14    7    9 1  
    15    7   21 1  
    16   20    8 am 
    17    8   22 2  
    18    9   23 am 
    19    9   24 2  
    20   23   10 1  
    21   27   11 ar 
    22   13   12 ar 
    23   12   26 ar 
    24   15   13 1  
    25   13   27 ar 
    26   14   28 1  
    27   29   14 1  
    28   15   29 am 
    29   16   17 ar 
    30   17   18 ar 
    31   17   25 1  
    32   27   28 1  
    33   29   30 2  
    34    2   31 1  
    35    5   32 1  
    36    5   33 1  
    37    6   34 1  
    38    6   35 1  
    39   10   36 1  
    40   10   37 1  
    41   11   38 1  
    42   12   39 1  
    43   14   40 1  
    44   14   41 1  
    45   15   42 1  
    46   16   43 1  
    47   18   44 1  
    48   21   45 1  
    49   23   46 1  
    50   26   47 1  
    51   28   48 1  
    52   28   49 1  
@<TRIPOS>SUBSTRUCTURE
     1 HZK         1

