### 
### Created by X-TOOL on Mon Aug  2 16:16:30 2021
### 

@<TRIPOS>MOLECULE
6qef_ligand
   41    43     1     0     0
SMALL
GAST_HUCK


@<TRIPOS>ATOM
      1 C1        -24.4370  -18.2510   15.3740 C.ar      1 HZW        -0.0223
      2 C2        -23.5930  -19.4960   15.3690 C.3       1 HZW         0.0636
      3 O5        -23.0640  -22.1950   15.4770 O.2       1 HZW        -0.3444
      4 C7        -25.8450  -22.1470   17.7240 C.2       1 HZW         0.2625
      5 C9        -24.6370  -21.8220   19.7370 C.3       1 HZW         0.0571
      6 C10       -23.6550  -22.4760   18.7760 C.3       1 HZW         0.0172
      7 C11       -27.1130  -21.4140   19.7270 C.ar      1 HZW         0.0704
      8 C14       -28.2220  -22.2450   19.6570 C.ar      1 HZW        -0.0402
      9 C15       -29.3660  -21.9230   20.3630 C.ar      1 HZW        -0.0749
     10 C16       -29.4110  -20.7850   21.1320 C.ar      1 HZW        -0.0766
     11 C19       -25.8110  -18.3470   15.5450 C.ar      1 HZW        -0.0486
     12 C20       -26.5680  -17.2020   15.6440 C.ar      1 HZW         0.0321
     13 C21       -26.0050  -15.9480   15.5670 C.ar      1 HZW        -0.0213
     14 C22       -24.6490  -15.8920   15.3920 C.ar      1 HZW         0.1264
     15 N3        -23.9990  -20.4080   16.4250 N.am      1 HZW        -0.2735
     16 C4        -23.7580  -21.7120   16.3550 C.2       1 HZW         0.2362
     17 C6        -24.4010  -22.5920   17.4300 C.3       1 HZW         0.2336
     18 N8        -25.9230  -21.7630   19.0300 N.am      1 HZW        -0.2177
     19 O12       -26.7610  -22.1430   16.9300 O.2       1 HZW        -0.3351
     20 O13       -24.6020  -23.9320   17.0070 O.3       1 HZW        -0.3814
     21 C17       -28.3150  -19.9590   21.2010 C.ar      1 HZW        -0.0749
     22 C18       -27.1630  -20.2650   20.5000 C.ar      1 HZW        -0.0402
     23 C23       -23.8490  -16.9970   15.2850 C.ar      1 HZW        -0.0249
     24 CL1       -28.2840  -17.3440   15.8960 Cl        1 HZW        -0.0735
     25 F25       -24.0600  -14.6770   15.3510 F         1 HZW        -0.1853
     26 H1        -22.5400  -19.2167   15.5209 H         1 HZW         0.0684
     27 H2        -23.7022  -20.0001   14.3974 H         1 HZW         0.0684
     28 H3        -24.2981  -20.8085   19.9976 H         1 HZW         0.0587
     29 H4        -24.7325  -22.4236   20.6529 H         1 HZW         0.0587
     30 H5        -23.3668  -23.4726   19.1417 H         1 HZW         0.0293
     31 H6        -22.7558  -21.8525   18.6634 H         1 HZW         0.0293
     32 H7        -28.1914  -23.1433   19.0510 H         1 HZW         0.0507
     33 H8        -30.2327  -22.5720   20.3097 H         1 HZW         0.0579
     34 H9        -30.3109  -20.5390   21.6840 H         1 HZW         0.0492
     35 H10       -26.2859  -19.3199   15.6003 H         1 HZW         0.0528
     36 H11       -26.6064  -15.0492   15.6413 H         1 HZW         0.0552
     37 H12       -24.4730  -20.0435   17.2266 H         1 HZW         0.1882
     38 H13       -25.1160  -24.3948   17.6583 H         1 HZW         0.2057
     39 H14       -28.3537  -19.0621   21.8086 H         1 HZW         0.0579
     40 H15       -26.3022  -19.6085   20.5550 H         1 HZW         0.0507
     41 H16       -22.7804  -16.8952   15.1342 H         1 HZW         0.0544
@<TRIPOS>BOND
     1    2    1 1  
     2    1   11 ar 
     3    1   23 ar 
     4   15    2 1  
     5   16    3 2  
     6   17    4 1  
     7    4   18 am 
     8    4   19 2  
     9    6    5 1  
    10    5   18 1  
    11   17    6 1  
    12    7    8 ar 
    13   18    7 1  
    14    7   22 ar 
    15    8    9 ar 
    16    9   10 ar 
    17   10   21 ar 
    18   11   12 ar 
    19   12   13 ar 
    20   12   24 1  
    21   14   13 ar 
    22   23   14 ar 
    23   14   25 1  
    24   16   15 am 
    25   16   17 1  
    26   17   20 1  
    27   21   22 ar 
    28    2   26 1  
    29    2   27 1  
    30    5   28 1  
    31    5   29 1  
    32    6   30 1  
    33    6   31 1  
    34    8   32 1  
    35    9   33 1  
    36   10   34 1  
    37   11   35 1  
    38   13   36 1  
    39   15   37 1  
    40   20   38 1  
    41   21   39 1  
    42   22   40 1  
    43   23   41 1  
@<TRIPOS>SUBSTRUCTURE
     1 HZW         1

