### 
### Created by X-TOOL on Mon Aug  2 16:16:31 2021
### 

@<TRIPOS>MOLECULE
6qfe_ligand
   53    56     1     0     0
SMALL
GAST_HUCK


@<TRIPOS>ATOM
      1 C10        -4.7260  -16.7960   68.5720 C.2       1 J08         0.1375
      2 C13        -3.5160  -18.1520   69.7130 C.2       1 J08         0.0423
      3 C15        -4.4950  -17.6760   72.0470 C.ar      1 J08        -0.0315
      4 C17        -5.6710  -17.2220   74.1140 C.ar      1 J08        -0.0669
      5 C20        -3.6690  -18.5620   72.7390 C.ar      1 J08        -0.0618
      6 C21        -3.1370  -14.9650   65.9240 C.ar      1 J08        -0.0167
      7 C22        -2.1500  -14.3780   65.1410 C.ar      1 J08         0.0876
      8 C24        -1.4960  -12.7810   66.8680 C.3       1 J08         0.1100
      9 C26        -3.3840  -11.9140   68.2980 C.ar      1 J08        -0.0379
     10 C28        -4.9540  -10.3880   67.3790 C.ar      1 J08         0.0042
     11 N01        -0.4250  -13.0680   63.0220 N.pl3     1 J08        -0.2749
     12 C02        -0.8310  -14.3570   62.9500 C.cat     1 J08         0.2251
     13 N03        -0.3520  -15.1010   62.0000 N.pl3     1 J08        -0.2749
     14 C04        -1.8360  -14.8990   63.8680 C.ar      1 J08         0.0405
     15 C05        -2.5660  -16.0030   63.4120 C.ar      1 J08        -0.0768
     16 C06        -3.5680  -16.5670   64.1760 C.ar      1 J08        -0.0555
     17 C07        -3.8770  -16.0460   65.4240 C.ar      1 J08         0.0306
     18 N08        -4.9060  -16.6130   66.1480 N.pl3     1 J08        -0.3074
     19 C09        -5.3690  -16.0930   67.4240 C.3       1 J08         0.1006
     20 N11        -5.1410  -16.6680   69.8510 N.2       1 J08        -0.3264
     21 C12        -4.3470  -17.4970   70.5900 C.2       1 J08         0.0130
     22 N14        -3.7580  -17.6950   68.4400 N.pl3     1 J08        -0.2560
     23 C16        -5.5010  -17.0080   72.7510 C.ar      1 J08        -0.0618
     24 C18        -4.8180  -18.0690   74.7960 C.ar      1 J08        -0.0668
     25 C19        -3.8390  -18.7630   74.1040 C.ar      1 J08        -0.0669
     26 O23        -1.4100  -13.2890   65.5320 O.3       1 J08        -0.3076
     27 C25        -2.7300  -11.9500   67.0700 C.ar      1 J08         0.0152
     28 C27        -4.5020  -11.1120   68.4620 C.ar      1 J08        -0.0404
     29 N29        -4.3750  -10.4380   66.1670 N.ar      1 J08        -0.3043
     30 C30        -3.2700  -11.1930   66.0440 C.ar      1 J08         0.0151
     31 H1         -2.7835  -18.9111   69.9835 H         1 J08         0.0877
     32 H2         -6.4748  -16.7232   74.6434 H         1 J08         0.0604
     33 H3         -2.8895  -19.0972   72.2089 H         1 J08         0.0576
     34 H4         -3.3346  -14.5873   66.9207 H         1 J08         0.0433
     35 H5         -0.6112  -12.1596   67.0703 H         1 J08         0.0795
     36 H6         -1.5179  -13.6275   67.5701 H         1 J08         0.0795
     37 H7         -3.0193  -12.5125   69.1250 H         1 J08         0.0679
     38 H8         -5.8183   -9.7473   67.5115 H         1 J08         0.0767
     39 H9         -0.7884  -12.4544   63.7652 H         1 J08         0.3178
     40 H10         0.2474  -12.7006   62.3336 H         1 J08         0.3178
     41 H11        -0.6431  -16.0858   61.9207 H         1 J08         0.3178
     42 H12         0.3191  -14.7064   61.3256 H         1 J08         0.3178
     43 H13        -2.3398  -16.4237   62.4389 H         1 J08         0.0556
     44 H14        -4.1167  -17.4222   63.7984 H         1 J08         0.0425
     45 H15        -5.3703  -17.4484   65.7641 H         1 J08         0.1786
     46 H16        -5.1270  -15.0215   67.4813 H         1 J08         0.0753
     47 H17        -6.4589  -16.2268   67.4892 H         1 J08         0.0753
     48 H18        -3.2893  -17.9870   67.5705 H         1 J08         0.2405
     49 H19        -6.1540  -16.3174   72.2298 H         1 J08         0.0576
     50 H20        -4.9147  -18.1899   75.8689 H         1 J08         0.0575
     51 H21        -3.2026  -19.4660   74.6292 H         1 J08         0.0604
     52 H22        -5.0090  -11.0551   69.4185 H         1 J08         0.0693
     53 H23        -2.7706  -11.2104   65.0821 H         1 J08         0.0766
@<TRIPOS>BOND
     1   19    1 1  
     2    1   20 2  
     3    1   22 1  
     4    2   21 2  
     5   22    2 1  
     6    3    5 ar 
     7   21    3 1  
     8    3   23 ar 
     9   23    4 ar 
    10    4   24 ar 
    11    5   25 ar 
    12    6    7 ar 
    13   17    6 ar 
    14    7   14 ar 
    15    7   26 1  
    16   26    8 1  
    17    8   27 1  
    18   27    9 ar 
    19    9   28 ar 
    20   28   10 ar 
    21   10   29 ar 
    22   12   11 ar 
    23   12   13 ar 
    24   14   12 1  
    25   15   14 ar 
    26   16   15 ar 
    27   17   16 ar 
    28   18   17 1  
    29   18   19 1  
    30   20   21 1  
    31   24   25 ar 
    32   27   30 ar 
    33   29   30 ar 
    34    2   31 1  
    35    4   32 1  
    36    5   33 1  
    37    6   34 1  
    38    8   35 1  
    39    8   36 1  
    40    9   37 1  
    41   10   38 1  
    42   11   39 1  
    43   11   40 1  
    44   13   41 1  
    45   13   42 1  
    46   15   43 1  
    47   16   44 1  
    48   18   45 1  
    49   19   46 1  
    50   19   47 1  
    51   22   48 1  
    52   23   49 1  
    53   24   50 1  
    54   25   51 1  
    55   28   52 1  
    56   30   53 1  
@<TRIPOS>SUBSTRUCTURE
     1 J08         1

