### 
### Created by X-TOOL on Mon Aug  2 16:16:31 2021
### 

@<TRIPOS>MOLECULE
6qff_ligand
   53    56     1     0     0
SMALL
GAST_HUCK


@<TRIPOS>ATOM
      1 C10       -20.7150    0.1930  -19.1950 C.2       1 J08         0.1375
      2 C13       -18.5880    0.2510  -18.8950 C.2       1 J08         0.0423
      3 C15       -18.4850   -0.8140  -16.5510 C.ar      1 J08        -0.0315
      4 C17       -16.4720   -1.4460  -15.3590 C.ar      1 J08        -0.0669
      5 C20       -19.2290   -1.1180  -15.4100 C.ar      1 J08        -0.0618
      6 C21       -22.1000    2.8770  -21.2630 C.ar      1 J08        -0.0167
      7 C22       -22.2220    4.0730  -21.9640 C.ar      1 J08         0.0876
      8 C24       -22.2180    5.3680  -19.9010 C.3       1 J08         0.1100
      9 C26       -23.4140    4.0060  -18.1440 C.ar      1 J08        -0.0379
     10 C28       -25.7850    3.8850  -18.1630 C.ar      1 J08         0.0042
     11 N01       -22.9720    6.3840  -23.7370 N.pl3     1 J08        -0.2749
     12 C02       -22.3300    5.2890  -24.2090 C.cat     1 J08         0.2251
     13 N03       -21.8740    5.3420  -25.4220 N.pl3     1 J08        -0.2749
     14 C04       -22.2270    4.0890  -23.3710 C.ar      1 J08         0.0405
     15 C05       -22.1520    2.8570  -24.0360 C.ar      1 J08        -0.0768
     16 C06       -22.0740    1.6620  -23.3410 C.ar      1 J08        -0.0555
     17 C07       -22.0550    1.6590  -21.9530 C.ar      1 J08         0.0306
     18 N08       -21.9990    0.4540  -21.2720 N.pl3     1 J08        -0.3074
     19 C09       -22.0710    0.3120  -19.8170 C.3       1 J08         0.1006
     20 N11       -20.4950   -0.3630  -17.9820 N.2       1 J08        -0.3264
     21 C12       -19.1430   -0.2950  -17.7630 C.2       1 J08         0.0130
     22 N14       -19.5850    0.5330  -19.7990 N.pl3     1 J08        -0.2560
     23 C16       -17.0940   -0.9680  -16.5070 C.ar      1 J08        -0.0618
     24 C18       -17.2220   -1.7650  -14.2440 C.ar      1 J08        -0.0668
     25 C19       -18.5980   -1.5990  -14.2670 C.ar      1 J08        -0.0669
     26 O23       -22.2890    5.3010  -21.3400 O.3       1 J08        -0.3076
     27 C25       -23.4680    4.8260  -19.2660 C.ar      1 J08         0.0152
     28 C27       -24.5850    3.5310  -17.5790 C.ar      1 J08        -0.0404
     29 N29       -25.8740    4.6890  -19.2350 N.ar      1 J08        -0.3043
     30 C30       -24.7240    5.1300  -19.7650 C.ar      1 J08         0.0151
     31 H1        -17.5256    0.4320  -19.0517 H         1 J08         0.0877
     32 H2        -15.3951   -1.5687  -15.3391 H         1 J08         0.0604
     33 H3        -20.3040   -0.9787  -15.4143 H         1 J08         0.0576
     34 H4        -22.0397    2.8881  -20.1807 H         1 J08         0.0433
     35 H5        -22.0879    6.4172  -19.5972 H         1 J08         0.0795
     36 H6        -21.3563    4.7771  -19.5570 H         1 J08         0.0795
     37 H7        -22.4561    3.7392  -17.7125 H         1 J08         0.0679
     38 H8        -26.7011    3.4944  -17.7348 H         1 J08         0.0767
     39 H9        -23.3504    6.3861  -22.7790 H         1 J08         0.3178
     40 H10       -23.0819    7.2147  -24.3360 H         1 J08         0.3178
     41 H11       -21.3791    4.5321  -25.8220 H         1 J08         0.3178
     42 H12       -22.0068    6.1940  -25.9853 H         1 J08         0.3178
     43 H13       -22.1552    2.8396  -25.1199 H         1 J08         0.0556
     44 H14       -22.0276    0.7245  -23.8833 H         1 J08         0.0425
     45 H15       -21.8993   -0.4055  -21.8308 H         1 J08         0.1786
     46 H16       -22.5766    1.1950  -19.3991 H         1 J08         0.0753
     47 H17       -22.6517   -0.5909  -19.5771 H         1 J08         0.0753
     48 H18       -19.4767    0.9254  -20.7452 H         1 J08         0.2405
     49 H19       -16.4971   -0.7125  -17.3751 H         1 J08         0.0576
     50 H20       -16.7356   -2.1444  -13.3527 H         1 J08         0.0575
     51 H21       -19.1855   -1.8452  -13.3899 H         1 J08         0.0604
     52 H22       -24.5605    2.8970  -16.7001 H         1 J08         0.0693
     53 H23       -24.7808    5.7659  -20.6411 H         1 J08         0.0766
@<TRIPOS>BOND
     1   19    1 1  
     2    1   20 2  
     3    1   22 1  
     4    2   21 2  
     5   22    2 1  
     6    3    5 ar 
     7   21    3 1  
     8    3   23 ar 
     9   23    4 ar 
    10    4   24 ar 
    11    5   25 ar 
    12    6    7 ar 
    13   17    6 ar 
    14    7   14 ar 
    15    7   26 1  
    16   26    8 1  
    17    8   27 1  
    18   27    9 ar 
    19    9   28 ar 
    20   28   10 ar 
    21   10   29 ar 
    22   12   11 ar 
    23   12   13 ar 
    24   14   12 1  
    25   15   14 ar 
    26   16   15 ar 
    27   17   16 ar 
    28   18   17 1  
    29   18   19 1  
    30   20   21 1  
    31   24   25 ar 
    32   27   30 ar 
    33   29   30 ar 
    34    2   31 1  
    35    4   32 1  
    36    5   33 1  
    37    6   34 1  
    38    8   35 1  
    39    8   36 1  
    40    9   37 1  
    41   10   38 1  
    42   11   39 1  
    43   11   40 1  
    44   13   41 1  
    45   13   42 1  
    46   15   43 1  
    47   16   44 1  
    48   18   45 1  
    49   19   46 1  
    50   19   47 1  
    51   22   48 1  
    52   23   49 1  
    53   24   50 1  
    54   25   51 1  
    55   28   52 1  
    56   30   53 1  
@<TRIPOS>SUBSTRUCTURE
     1 J08         1

