### 
### Created by X-TOOL on Mon Aug  2 16:16:31 2021
### 

@<TRIPOS>MOLECULE
6qfg_ligand
   53    56     1     0     0
SMALL
GAST_HUCK


@<TRIPOS>ATOM
      1 C10       -20.8970   -0.1940  -19.0640 C.2       1 J08         0.1375
      2 C13       -18.7610   -0.1260  -18.8100 C.2       1 J08         0.0423
      3 C15       -18.6210   -1.1950  -16.4630 C.ar      1 J08        -0.0315
      4 C17       -16.6040   -1.8510  -15.2940 C.ar      1 J08        -0.0669
      5 C20       -19.3460   -1.4340  -15.2970 C.ar      1 J08        -0.0618
      6 C21       -22.3470    2.4110  -21.1150 C.ar      1 J08        -0.0167
      7 C22       -22.4800    3.6020  -21.8240 C.ar      1 J08         0.0876
      8 C24       -22.4600    4.9240  -19.7700 C.3       1 J08         0.1100
      9 C26       -23.4690    3.5990  -17.8750 C.ar      1 J08        -0.0379
     10 C28       -25.7790    3.0530  -17.9220 C.ar      1 J08         0.0042
     11 N01       -23.2540    5.8710  -23.6640 N.pl3     1 J08        -0.2749
     12 C02       -22.5440    4.8110  -24.0810 C.cat     1 J08         0.2251
     13 N03       -21.9690    4.8720  -25.2440 N.pl3     1 J08        -0.2749
     14 C04       -22.4390    3.6140  -23.2340 C.ar      1 J08         0.0405
     15 C05       -22.3490    2.3790  -23.8900 C.ar      1 J08        -0.0768
     16 C06       -22.2350    1.1920  -23.1860 C.ar      1 J08        -0.0555
     17 C07       -22.2780    1.1920  -21.7980 C.ar      1 J08         0.0306
     18 N08       -22.2050   -0.0050  -21.1060 N.pl3     1 J08        -0.3074
     19 C09       -22.2650   -0.1070  -19.6590 C.3       1 J08         0.1006
     20 N11       -20.6520   -0.7380  -17.8520 N.2       1 J08        -0.3264
     21 C12       -19.2920   -0.6980  -17.6780 C.2       1 J08         0.0130
     22 N14       -19.7600    0.1650  -19.6920 N.pl3     1 J08        -0.2560
     23 C16       -17.2350   -1.3830  -16.4410 C.ar      1 J08        -0.0618
     24 C18       -17.3350   -2.0960  -14.1490 C.ar      1 J08        -0.0668
     25 C19       -18.7050   -1.8940  -14.1510 C.ar      1 J08        -0.0669
     26 O23       -22.6100    4.8290  -21.2010 O.3       1 J08        -0.3076
     27 C25       -23.6310    4.3010  -19.0640 C.ar      1 J08         0.0152
     28 C27       -24.5560    2.9750  -17.2860 C.ar      1 J08        -0.0404
     29 N29       -25.9680    3.7130  -19.0750 N.ar      1 J08        -0.3043
     30 C30       -24.9000    4.3150  -19.6160 C.ar      1 J08         0.0151
     31 H1        -17.7022    0.0658  -18.9772 H         1 J08         0.0877
     32 H2        -15.5339   -2.0242  -15.2989 H         1 J08         0.0604
     33 H3        -20.4159   -1.2604  -15.2829 H         1 J08         0.0576
     34 H4        -22.2969    2.4284  -20.0323 H         1 J08         0.0433
     35 H5        -22.3905    5.9842  -19.4850 H         1 J08         0.0795
     36 H6        -21.5395    4.4024  -19.4692 H         1 J08         0.0795
     37 H7        -22.4920    3.5401  -17.4090 H         1 J08         0.0679
     38 H8        -26.6286    2.5565  -17.4674 H         1 J08         0.0767
     39 H9        -23.7204    5.8496  -22.7459 H         1 J08         0.3178
     40 H10       -23.3325    6.7059  -24.2621 H         1 J08         0.3178
     41 H11       -21.4180    4.0729  -25.5887 H         1 J08         0.3178
     42 H12       -22.0640    5.7195  -25.8216 H         1 J08         0.3178
     43 H13       -22.3691    2.3522  -24.9735 H         1 J08         0.0556
     44 H14       -22.1115    0.2576  -23.7214 H         1 J08         0.0425
     45 H15       -22.1021   -0.8739  -21.6495 H         1 J08         0.1786
     46 H16       -22.7744    0.7816  -19.2580 H         1 J08         0.0753
     47 H17       -22.8324   -1.0091  -19.3866 H         1 J08         0.0753
     48 H18       -19.6658    0.5711  -20.6339 H         1 J08         0.2405
     49 H19       -16.6483   -1.1620  -17.3253 H         1 J08         0.0576
     50 H20       -16.8382   -2.4454  -13.2511 H         1 J08         0.0575
     51 H21       -19.2810   -2.0953  -13.2550 H         1 J08         0.0604
     52 H22       -24.4494    2.4391  -16.3498 H         1 J08         0.0693
     53 H23       -25.0395    4.8490  -20.5490 H         1 J08         0.0766
@<TRIPOS>BOND
     1   19    1 1  
     2    1   20 2  
     3    1   22 1  
     4    2   21 2  
     5   22    2 1  
     6    3    5 ar 
     7   21    3 1  
     8    3   23 ar 
     9   23    4 ar 
    10    4   24 ar 
    11    5   25 ar 
    12    6    7 ar 
    13   17    6 ar 
    14    7   14 ar 
    15    7   26 1  
    16   26    8 1  
    17    8   27 1  
    18   27    9 ar 
    19    9   28 ar 
    20   28   10 ar 
    21   10   29 ar 
    22   12   11 ar 
    23   12   13 ar 
    24   14   12 1  
    25   15   14 ar 
    26   16   15 ar 
    27   17   16 ar 
    28   18   17 1  
    29   18   19 1  
    30   20   21 1  
    31   24   25 ar 
    32   27   30 ar 
    33   29   30 ar 
    34    2   31 1  
    35    4   32 1  
    36    5   33 1  
    37    6   34 1  
    38    8   35 1  
    39    8   36 1  
    40    9   37 1  
    41   10   38 1  
    42   11   39 1  
    43   11   40 1  
    44   13   41 1  
    45   13   42 1  
    46   15   43 1  
    47   16   44 1  
    48   18   45 1  
    49   19   46 1  
    50   19   47 1  
    51   22   48 1  
    52   23   49 1  
    53   24   50 1  
    54   25   51 1  
    55   28   52 1  
    56   30   53 1  
@<TRIPOS>SUBSTRUCTURE
     1 J08         1

