### 
### Created by X-TOOL on Mon Aug  2 16:16:31 2021
### 

@<TRIPOS>MOLECULE
6qfh_ligand
   53    56     1     0     0
SMALL
GAST_HUCK


@<TRIPOS>ATOM
      1 C10       -36.5780  -21.1740  -18.8430 C.2       1 J08         0.1375
      2 C13       -38.6720  -21.4810  -18.4310 C.2       1 J08         0.0423
      3 C15       -38.8080  -20.2560  -16.1760 C.ar      1 J08        -0.0315
      4 C17       -38.7350  -19.2560  -13.9780 C.ar      1 J08        -0.0669
      5 C20       -40.2010  -20.2240  -16.1170 C.ar      1 J08        -0.0618
      6 C21       -34.9950  -23.8120  -20.8140 C.ar      1 J08        -0.0167
      7 C22       -34.7290  -25.0140  -21.4540 C.ar      1 J08         0.0876
      8 C24       -34.5130  -26.1370  -19.3120 C.3       1 J08         0.1100
      9 C26       -33.3650  -24.7140  -17.5680 C.ar      1 J08        -0.0379
     10 C28       -31.0990  -24.0700  -17.8800 C.ar      1 J08         0.0042
     11 N01       -33.6650  -27.2920  -23.1060 N.pl3     1 J08        -0.2749
     12 C02       -34.4560  -26.3350  -23.6120 C.cat     1 J08         0.2251
     13 N03       -34.9410  -26.4530  -24.8010 N.pl3     1 J08        -0.2749
     14 C04       -34.7160  -25.1060  -22.8600 C.ar      1 J08         0.0405
     15 C05       -34.9660  -23.9340  -23.5860 C.ar      1 J08        -0.0768
     16 C06       -35.2070  -22.7290  -22.9500 C.ar      1 J08        -0.0555
     17 C07       -35.2130  -22.6570  -21.5630 C.ar      1 J08         0.0306
     18 N08       -35.4080  -21.4390  -20.9450 N.pl3     1 J08        -0.3074
     19 C09       -35.2540  -21.2060  -19.5190 C.3       1 J08         0.1006
     20 N11       -36.8070  -20.5800  -17.6530 N.2       1 J08        -0.3264
     21 C12       -38.1300  -20.7930  -17.3660 C.2       1 J08         0.0130
     22 N14       -37.7070  -21.7000  -19.3600 N.pl3     1 J08        -0.2560
     23 C16       -38.0780  -19.7680  -15.0900 C.ar      1 J08        -0.0618
     24 C18       -40.1180  -19.2310  -13.9310 C.ar      1 J08        -0.0668
     25 C19       -40.8510  -19.7190  -14.9980 C.ar      1 J08        -0.0669
     26 O23       -34.4520  -26.1660  -20.7510 O.3       1 J08        -0.3076
     27 C25       -33.3090  -25.4180  -18.7620 C.ar      1 J08         0.0152
     28 C27       -32.2460  -24.0350  -17.1110 C.ar      1 J08        -0.0404
     29 N29       -31.0150  -24.7310  -19.0470 N.ar      1 J08        -0.3043
     30 C30       -32.1110  -25.3840  -19.4570 C.ar      1 J08         0.0151
     31 H1        -39.7104  -21.7985  -18.5137 H         1 J08         0.0877
     32 H2        -38.1607  -18.8737  -13.1419 H         1 J08         0.0604
     33 H3        -40.7822  -20.5969  -16.9526 H         1 J08         0.0576
     34 H4        -35.0333  -23.7712  -19.7314 H         1 J08         0.0433
     35 H5        -34.5299  -27.1672  -18.9268 H         1 J08         0.0795
     36 H6        -35.4268  -25.6124  -18.9962 H         1 J08         0.0795
     37 H7        -34.2834  -24.6948  -16.9925 H         1 J08         0.0679
     38 H8        -30.2238  -23.5382  -17.5247 H         1 J08         0.0767
     39 H9        -33.2801  -27.1930  -22.1558 H         1 J08         0.3178
     40 H10       -33.4422  -28.1262  -23.6675 H         1 J08         0.3178
     41 H11       -35.5482  -25.7150  -25.1851 H         1 J08         0.3178
     42 H12       -34.7212  -27.2853  -25.3666 H         1 J08         0.3178
     43 H13       -34.9707  -23.9721  -24.6693 H         1 J08         0.0556
     44 H14       -35.3920  -21.8368  -23.5372 H         1 J08         0.0425
     45 H15       -35.6815  -20.6401  -21.5348 H         1 J08         0.1786
     46 H16       -34.6470  -22.0142  -19.0851 H         1 J08         0.0753
     47 H17       -34.7465  -20.2425  -19.3638 H         1 J08         0.0753
     48 H18       -37.8146  -22.1700  -20.2702 H         1 J08         0.2405
     49 H19       -36.9945  -19.7888  -15.1148 H         1 J08         0.0576
     50 H20       -40.6253  -18.8303  -13.0608 H         1 J08         0.0575
     51 H21       -41.9343  -19.7073  -14.9608 H         1 J08         0.0604
     52 H22       -32.2705  -23.4905  -16.1740 H         1 J08         0.0693
     53 H23       -32.0565  -25.9222  -20.3964 H         1 J08         0.0766
@<TRIPOS>BOND
     1   19    1 1  
     2    1   20 2  
     3    1   22 1  
     4    2   21 2  
     5   22    2 1  
     6    3    5 ar 
     7   21    3 1  
     8    3   23 ar 
     9   23    4 ar 
    10    4   24 ar 
    11    5   25 ar 
    12    6    7 ar 
    13   17    6 ar 
    14    7   14 ar 
    15    7   26 1  
    16   26    8 1  
    17    8   27 1  
    18   27    9 ar 
    19    9   28 ar 
    20   28   10 ar 
    21   10   29 ar 
    22   12   11 ar 
    23   12   13 ar 
    24   14   12 1  
    25   15   14 ar 
    26   16   15 ar 
    27   17   16 ar 
    28   18   17 1  
    29   18   19 1  
    30   20   21 1  
    31   24   25 ar 
    32   27   30 ar 
    33   29   30 ar 
    34    2   31 1  
    35    4   32 1  
    36    5   33 1  
    37    6   34 1  
    38    8   35 1  
    39    8   36 1  
    40    9   37 1  
    41   10   38 1  
    42   11   39 1  
    43   11   40 1  
    44   13   41 1  
    45   13   42 1  
    46   15   43 1  
    47   16   44 1  
    48   18   45 1  
    49   19   46 1  
    50   19   47 1  
    51   22   48 1  
    52   23   49 1  
    53   24   50 1  
    54   25   51 1  
    55   28   52 1  
    56   30   53 1  
@<TRIPOS>SUBSTRUCTURE
     1 J08         1

