### 
### Created by X-TOOL on Mon Aug  2 16:17:12 2021
### 

@<TRIPOS>MOLECULE
6qfq_ligand
   57    61     1     0     0
SMALL
GAST_HUCK


@<TRIPOS>ATOM
      1 C1         15.0640  -19.9540   13.7820 C.2       1 J3E         0.0048
      2 C3         14.4260  -17.7690   14.3850 C.2       1 J3E         0.0727
      3 C7         11.6950  -20.1450   13.7370 C.ar      1 J3E        -0.0795
      4 C8         10.4250  -20.6190   14.0750 C.ar      1 J3E        -0.0865
      5 C9          9.9630  -20.6420   15.3910 C.ar      1 J3E        -0.0804
      6 C10        10.7890  -20.1790   16.4060 C.ar      1 J3E        -0.0217
      7 C11        10.6020  -20.0710   17.8670 C.2       1 J3E        -0.0304
      8 C12         9.3980  -20.4580   18.6920 C.3       1 J3E        -0.0296
      9 C13         9.6570  -21.7960   19.3730 C.3       1 J3E        -0.0191
     10 C14         9.4740  -22.9510   18.3940 C.3       1 J3E         0.0736
     11 C15         7.8790  -23.6930   16.7300 C.ar      1 J3E         0.1043
     12 C16         8.7540  -24.6950   16.3230 C.ar      1 J3E        -0.0340
     13 C19         6.1690  -24.6730   15.1220 C.ar      1 J3E        -0.0261
     14 C20         4.9050  -24.6480   14.5460 C.ar      1 J3E        -0.0587
     15 C21         4.0000  -23.6610   14.9270 C.ar      1 J3E        -0.0640
     16 C22         4.3350  -22.6960   15.8750 C.ar      1 J3E        -0.0633
     17 C24         6.5220  -23.6470   16.1280 C.ar      1 J3E         0.0178
     18 C27        12.1160  -19.2170   19.7750 C.2       1 J3E         0.0759
     19 O1         13.0590  -18.4690   20.1120 O.co2     1 J3E        -0.5636
     20 O2         11.3540  -19.7430   20.6150 O.co2     1 J3E        -0.5636
     21 C25        11.8920  -19.4890   18.3270 C.2       1 J3E         0.0868
     22 N2         12.7230  -19.2830   17.2830 N.pl3     1 J3E        -0.2817
     23 C26        12.1460  -19.6630   16.1230 C.ar      1 J3E         0.0619
     24 C6         12.5780  -19.6650   14.7020 C.ar      1 J3E        -0.0209
     25 C5         13.9280  -19.1650   14.3170 C.2       1 J3E         0.0017
     26 C4         13.6600  -16.5650   14.8630 C.3       1 J3E         0.0004
     27 N1         15.7020  -17.7870   13.9360 N.pl3     1 J3E        -0.2241
     28 N          16.0780  -19.0980   13.5760 N.2       1 J3E        -0.2392
     29 C          15.0790  -21.4370   13.5200 C.3       1 J3E        -0.0289
     30 O           8.2610  -22.7690   17.6660 O.3       1 J3E        -0.3129
     31 C23         5.5890  -22.6810   16.4790 C.ar      1 J3E        -0.0532
     32 C18         7.1100  -25.6360   14.7770 C.ar      1 J3E        -0.0685
     33 C17         8.3720  -25.6400   15.3690 C.ar      1 J3E        -0.0744
     34 H1         12.0013  -20.1508   12.6972 H         1 J3E         0.0461
     35 H2          9.7755  -20.9818   13.2866 H         1 J3E         0.0494
     36 H3          8.9715  -21.0167   15.6182 H         1 J3E         0.0483
     37 H4          8.5178  -20.5440   18.0380 H         1 J3E         0.0368
     38 H5          9.2138  -19.6878   19.4554 H         1 J3E         0.0368
     39 H6          8.9517  -21.9172   20.2084 H         1 J3E         0.0308
     40 H7         10.6873  -21.8104   19.7580 H         1 J3E         0.0308
     41 H8          9.4294  -23.8993   18.9497 H         1 J3E         0.0620
     42 H9         10.3218  -22.9759   17.6936 H         1 J3E         0.0620
     43 H10         9.7478  -24.7428   16.7533 H         1 J3E         0.0499
     44 H11         4.6260  -25.3901   13.8068 H         1 J3E         0.0599
     45 H12         3.0141  -23.6428   14.4768 H         1 J3E         0.0614
     46 H13         3.6049  -21.9425   16.1473 H         1 J3E         0.0591
     47 H14        13.6712  -18.8884   17.3611 H         1 J3E         0.2208
     48 H15        14.2993  -15.6725   14.7939 H         1 J3E         0.0452
     49 H16        13.3538  -16.7166   15.9086 H         1 J3E         0.0452
     50 H17        12.7671  -16.4258   14.2359 H         1 J3E         0.0452
     51 H18        16.3126  -16.9604   13.8668 H         1 J3E         0.2503
     52 H19        16.0628  -21.7295   13.1243 H         1 J3E         0.0379
     53 H20        14.2993  -21.6875   12.7857 H         1 J3E         0.0379
     54 H21        14.8860  -21.9772   14.4586 H         1 J3E         0.0379
     55 H22         5.8341  -21.9238   17.2149 H         1 J3E         0.0631
     56 H23         6.8601  -26.3911   14.0405 H         1 J3E         0.0493
     57 H24         9.0828  -26.4049   15.0780 H         1 J3E         0.0581
@<TRIPOS>BOND
     1   25    1 1  
     2    1   28 2  
     3    1   29 1  
     4   25    2 2  
     5    2   26 1  
     6    2   27 1  
     7    3    4 ar 
     8   24    3 ar 
     9    4    5 ar 
    10    6    5 ar 
    11    6    7 1  
    12   23    6 ar 
    13    7    8 1  
    14   21    7 2  
    15    8    9 1  
    16    9   10 1  
    17   10   30 1  
    18   11   12 ar 
    19   11   17 ar 
    20   30   11 1  
    21   12   33 ar 
    22   13   14 ar 
    23   17   13 ar 
    24   13   32 ar 
    25   14   15 ar 
    26   16   15 ar 
    27   31   16 ar 
    28   17   31 ar 
    29   18   19 ar 
    30   18   20 ar 
    31   21   18 1  
    32   22   21 1  
    33   23   22 1  
    34   24   23 ar 
    35   24   25 1  
    36   27   28 1  
    37   32   33 ar 
    38    3   34 1  
    39    4   35 1  
    40    5   36 1  
    41    8   37 1  
    42    8   38 1  
    43    9   39 1  
    44    9   40 1  
    45   10   41 1  
    46   10   42 1  
    47   12   43 1  
    48   14   44 1  
    49   15   45 1  
    50   16   46 1  
    51   22   47 1  
    52   26   48 1  
    53   26   49 1  
    54   26   50 1  
    55   27   51 1  
    56   29   52 1  
    57   29   53 1  
    58   29   54 1  
    59   31   55 1  
    60   32   56 1  
    61   33   57 1  
@<TRIPOS>SUBSTRUCTURE
     1 J3E         1

