### 
### Created by X-TOOL on Mon Aug  2 16:10:20 2021
### 

@<TRIPOS>MOLECULE
6qft_ligand
   38    40     1     0     0
SMALL
GAST_HUCK


@<TRIPOS>ATOM
      1 C12       -22.0320   14.3390   -6.4210 C.3       1 J0B        -0.0482
      2 C1        -24.6210    8.1520   -4.7330 C.ar      1 J0B         0.1641
      3 C5        -25.5690   10.4470   -5.4780 C.3       1 J0B         0.1023
      4 N4        -24.0540    4.4310   -5.1650 N.pl3     1 J0B        -0.3122
      5 C3        -24.0300    5.6850   -4.6560 C.ar      1 J0B         0.1277
      6 C10       -24.3350   13.4880   -6.1520 C.2       1 J0B         0.1783
      7 N2        -25.2910    8.9890   -5.5520 N.pl3     1 J0B        -0.1745
      8 C6        -27.0720   10.6850   -5.5510 C.3       1 J0B        -0.0176
      9 C11       -22.8830   13.0950   -6.2910 C.3       1 J0B         0.0346
     10 N         -23.4020    5.9610   -3.4900 N.ar      1 J0B        -0.2654
     11 C         -23.3760    7.2080   -2.9790 C.ar      1 J0B         0.0565
     12 O         -24.6370   14.6040   -5.7620 O.2       1 J0B        -0.3969
     13 C2        -24.6900    6.8140   -5.3500 C.ar      1 J0B         0.0896
     14 C4        -25.4710    7.0690   -6.5770 C.2       1 J0B         0.1026
     15 C7        -27.3850   12.1770   -5.5430 C.3       1 J0B        -0.0296
     16 C8        -26.6450   12.8950   -6.6650 C.3       1 J0B         0.0341
     17 C9        -24.9020   11.1600   -6.6480 C.3       1 J0B         0.0653
     18 I         -25.9830    5.5560   -8.0120 I         1 J0B        -0.0365
     19 N1        -23.9550    8.2760   -3.5600 N.ar      1 J0B        -0.2677
     20 N3        -25.8290    8.3620   -6.7000 N.2       1 J0B        -0.1834
     21 N5        -25.2410   12.5650   -6.4690 N.am      1 J0B        -0.2702
     22 H1        -20.9751   14.0513   -6.5221 H         1 J0B         0.0254
     23 H2        -22.1576   14.9645   -5.5249 H         1 J0B         0.0254
     24 H3        -22.3444   14.9057   -7.3105 H         1 J0B         0.0254
     25 H4        -25.1772   10.8465   -4.5310 H         1 J0B         0.0682
     26 H5        -24.5387    4.2455   -6.0547 H         1 J0B         0.1845
     27 H6        -23.5875    3.6623   -4.6626 H         1 J0B         0.1845
     28 H7        -27.5548   10.2107   -4.6839 H         1 J0B         0.0296
     29 H8        -27.4631   10.2395   -6.4776 H         1 J0B         0.0296
     30 H9        -22.5702   12.5285   -5.4015 H         1 J0B         0.0500
     31 H10       -22.7570   12.4697   -7.1871 H         1 J0B         0.0500
     32 H11       -22.8558    7.3609   -2.0404 H         1 J0B         0.1028
     33 H12       -27.0767   12.6043   -4.5774 H         1 J0B         0.0286
     34 H13       -28.4675   12.3184   -5.6777 H         1 J0B         0.0286
     35 H14       -26.7991   13.9819   -6.5949 H         1 J0B         0.0522
     36 H15       -26.9917   12.5380   -7.6460 H         1 J0B         0.0522
     37 H16       -25.2946   10.7855   -7.6049 H         1 J0B         0.0553
     38 H17       -23.8117   11.0176   -6.6180 H         1 J0B         0.0553
@<TRIPOS>BOND
     1    9    1 1  
     2    7    2 1  
     3    2   13 ar 
     4    2   19 ar 
     5    3    7 1  
     6    8    3 1  
     7    3   17 1  
     8    5    4 1  
     9    5   10 ar 
    10   13    5 ar 
    11    6    9 1  
    12    6   12 2  
    13   21    6 am 
    14    7   20 1  
    15   15    8 1  
    16   11   10 ar 
    17   19   11 ar 
    18   14   13 1  
    19   14   18 1  
    20   20   14 2  
    21   16   15 1  
    22   16   21 1  
    23   17   21 1  
    24    1   22 1  
    25    1   23 1  
    26    1   24 1  
    27    3   25 1  
    28    4   26 1  
    29    4   27 1  
    30    8   28 1  
    31    8   29 1  
    32    9   30 1  
    33    9   31 1  
    34   11   32 1  
    35   15   33 1  
    36   15   34 1  
    37   16   35 1  
    38   16   36 1  
    39   17   37 1  
    40   17   38 1  
@<TRIPOS>SUBSTRUCTURE
     1 J0B         1

