### 
### Created by X-TOOL on Mon Aug  2 16:10:20 2021
### 

@<TRIPOS>MOLECULE
6qg4_ligand
   49    52     1     0     0
SMALL
GAST_HUCK


@<TRIPOS>ATOM
      1 N1        -25.0810    9.3430   -5.2780 N.pl3     1 J0E        -0.1805
      2 N2        -24.9880   12.9500   -6.0350 N.am      1 J0E        -0.2703
      3 C3        -25.2910   10.7980   -5.0770 C.3       1 J0E         0.1007
      4 N4        -23.9480    8.3250   -3.3060 N.ar      1 J0E        -0.2677
      5 C5        -27.0490   12.5870   -4.9500 C.3       1 J0E        -0.0297
      6 C6        -26.3980   13.2960   -6.1300 C.3       1 J0E         0.0341
      7 C8        -22.6560   13.4700   -6.0500 C.3       1 J0E         0.0346
      8 C11       -25.3150    7.5350   -6.5910 C.2       1 J0E         0.0654
      9 C12       -25.6610    6.6540   -7.7400 C.ar      1 J0E        -0.0176
     10 C13       -26.9620    6.6330   -8.2270 C.ar      1 J0E        -0.0614
     11 C14       -27.2850    5.8160   -9.3030 C.ar      1 J0E        -0.0318
     12 C15       -26.3090    5.0220   -9.8930 C.ar      1 J0E         0.0891
     13 C16       -25.0080    5.0430   -9.4070 C.ar      1 J0E        -0.0318
     14 C17       -24.6830    5.8620   -8.3310 C.ar      1 J0E        -0.0614
     15 C18       -23.4780    7.1600   -2.8240 C.ar      1 J0E         0.0564
     16 N         -24.1560    4.7210   -5.3780 N.pl3     1 J0E        -0.3126
     17 C         -24.0990    5.9050   -4.7210 C.ar      1 J0E         0.1272
     18 O         -24.3080   14.9630   -5.3220 O.2       1 J0E        -0.3969
     19 C1        -24.6400    7.1470   -5.3220 C.ar      1 J0E         0.0856
     20 C10       -24.6770   11.5450   -6.2560 C.3       1 J0E         0.0651
     21 C2        -24.5290    8.3840   -4.5280 C.ar      1 J0E         0.1626
     22 C4        -26.7870   11.0870   -5.0140 C.3       1 J0E        -0.0178
     23 C7        -24.0510   13.8560   -5.7680 C.2       1 J0E         0.1783
     24 C9        -21.8470   14.2500   -7.0790 C.3       1 J0E        -0.0482
     25 N3        -25.5560    8.8650   -6.5130 N.2       1 J0E        -0.1983
     26 N5        -23.5430    5.9930   -3.4920 N.ar      1 J0E        -0.2657
     27 O1        -26.6320    4.2210  -10.9450 O.3       1 J0E        -0.3321
     28 H1        -24.8115   11.1195   -4.1407 H         1 J0E         0.0680
     29 H2        -28.1341   12.7657   -4.9748 H         1 J0E         0.0286
     30 H3        -26.6328   12.9869   -4.0136 H         1 J0E         0.0286
     31 H4        -26.8223   12.9384   -7.0798 H         1 J0E         0.0522
     32 H5        -26.5366   14.3845   -6.0532 H         1 J0E         0.0522
     33 H6        -22.6774   12.4237   -6.3886 H         1 J0E         0.0500
     34 H7        -22.1087   13.5362   -5.0981 H         1 J0E         0.0500
     35 H8        -27.7236    7.2530   -7.7681 H         1 J0E         0.0597
     36 H9        -28.3000    5.7978   -9.6831 H         1 J0E         0.0547
     37 H10       -24.2471    4.4220   -9.8657 H         1 J0E         0.0547
     38 H11       -23.6672    5.8829   -7.9531 H         1 J0E         0.0597
     39 H12       -23.0207    7.1612   -1.8412 H         1 J0E         0.1030
     40 H13       -23.7735    3.8705   -4.9407 H         1 J0E         0.1842
     41 H14       -24.5818    4.6717   -6.3146 H         1 J0E         0.1842
     42 H15       -23.5880   11.3924   -6.2819 H         1 J0E         0.0553
     43 H16       -25.1185   11.1983   -7.2020 H         1 J0E         0.0553
     44 H17       -27.2087   10.6092   -4.1174 H         1 J0E         0.0296
     45 H18       -27.2715   10.6748   -5.9114 H         1 J0E         0.0296
     46 H19       -20.8371   13.8203   -7.1536 H         1 J0E         0.0254
     47 H20       -21.7755   15.3026   -6.7679 H         1 J0E         0.0254
     48 H21       -22.3442   14.1901   -8.0584 H         1 J0E         0.0254
     49 H22       -26.1092    4.4652  -11.6997 H         1 J0E         0.2489
@<TRIPOS>BOND
     1    1    3 1  
     2    1   21 1  
     3   25    1 1  
     4    2    6 1  
     5   20    2 1  
     6    2   23 am 
     7    3   20 1  
     8    3   22 1  
     9    4   15 ar 
    10   21    4 ar 
    11    5    6 1  
    12   22    5 1  
    13   23    7 1  
    14    7   24 1  
    15    8    9 1  
    16   19    8 1  
    17    8   25 2  
    18    9   10 ar 
    19    9   14 ar 
    20   10   11 ar 
    21   11   12 ar 
    22   13   12 ar 
    23   12   27 1  
    24   14   13 ar 
    25   15   26 ar 
    26   17   16 1  
    27   17   19 ar 
    28   17   26 ar 
    29   23   18 2  
    30   19   21 ar 
    31    3   28 1  
    32    5   29 1  
    33    5   30 1  
    34    6   31 1  
    35    6   32 1  
    36    7   33 1  
    37    7   34 1  
    38   10   35 1  
    39   11   36 1  
    40   13   37 1  
    41   14   38 1  
    42   15   39 1  
    43   16   40 1  
    44   16   41 1  
    45   20   42 1  
    46   20   43 1  
    47   22   44 1  
    48   22   45 1  
    49   24   46 1  
    50   24   47 1  
    51   24   48 1  
    52   27   49 1  
@<TRIPOS>SUBSTRUCTURE
     1 J0E         1

