### 
### Created by X-TOOL on Mon Aug  2 16:10:20 2021
### 

@<TRIPOS>MOLECULE
6qg7_ligand
   54    58     1     0     0
SMALL
GAST_HUCK


@<TRIPOS>ATOM
      1 C4        -24.1940    8.2710   -4.7680 C.ar      1 MOL         0.1644
      2 C5        -24.5320    7.0390   -5.1610 C.ar      1 MOL         0.0878
      3 C6        -24.0480    6.0130   -4.4110 C.ar      1 MOL         0.1276
      4 N1        -23.2600    6.1940   -3.3430 N.ar      1 MOL        -0.2655
      5 N3        -23.3980    8.5070   -3.7150 N.ar      1 MOL        -0.2672
      6 CBC       -21.4360   14.3480   -7.2520 C.3       1 MOL        -0.0482
      7 CBB       -22.3630   13.1560   -7.0010 C.3       1 MOL         0.0346
      8 CAZ       -23.4060   13.5880   -5.9790 C.2       1 MOL         0.1783
      9 OBA       -23.2850   14.6800   -5.4230 O.2       1 MOL        -0.3969
     10 NAW       -24.5420   12.8790   -5.9000 N.am      1 MOL        -0.2702
     11 CAX       -24.8280   11.5330   -6.4320 C.3       1 MOL         0.0653
     12 CAV       -25.5250   13.3240   -4.9050 C.3       1 MOL         0.0341
     13 CAU       -25.2020   12.4560   -3.7230 C.3       1 MOL        -0.0296
     14 CAT       -25.3810   10.9810   -4.1300 C.3       1 MOL        -0.0176
     15 CAY       -24.4680   10.5790   -5.2960 C.3       1 MOL         0.1018
     16 NAM       -24.6950    9.1470   -5.6230 N.pl3     1 MOL        -0.1771
     17 NAN       -25.3150    8.5890   -6.4430 N.2       1 MOL        -0.1912
     18 C2        -22.9020    7.4680   -2.9490 C.ar      1 MOL         0.0567
     19 NBD       -24.3240    4.7550   -4.7110 N.pl3     1 MOL        -0.3126
     20 CAO       -25.3650    7.2700   -6.2150 C.2       1 MOL         0.0744
     21 CAC       -25.9510    6.3770   -7.0650 C.ar      1 MOL         0.0002
     22 CAD       -26.1610    6.5530   -8.4510 C.ar      1 MOL        -0.0100
     23 CAG       -25.8630    7.7400   -9.1150 C.ar      1 MOL        -0.0537
     24 CAH       -26.1190    7.9000  -10.4720 C.ar      1 MOL        -0.0613
     25 CAI       -26.6780    6.8670  -11.2090 C.ar      1 MOL        -0.0614
     26 CAJ       -26.9790    5.6770  -10.5690 C.ar      1 MOL        -0.0543
     27 CAE       -26.7270    5.5200   -9.2130 C.ar      1 MOL        -0.0180
     28 CAF       -27.0600    4.2970   -8.6570 C.ar      1 MOL        -0.0548
     29 CAA       -26.8300    4.0980   -7.3160 C.ar      1 MOL        -0.0615
     30 CAB       -26.2390    5.1090   -6.5880 C.ar      1 MOL        -0.0537
     31 H1        -20.6687   14.0671   -7.9885 H         1 MOL         0.0254
     32 H2        -20.9500   14.6395   -6.3092 H         1 MOL         0.0254
     33 H3        -22.0231   15.1940   -7.6388 H         1 MOL         0.0254
     34 H4        -21.7838   12.3069   -6.6092 H         1 MOL         0.0500
     35 H5        -22.8569   12.8615   -7.9387 H         1 MOL         0.0500
     36 H6        -24.2115   11.3283   -7.3197 H         1 MOL         0.0553
     37 H7        -25.8920   11.4384   -6.6947 H         1 MOL         0.0553
     38 H8        -26.5530   13.1516   -5.2563 H         1 MOL         0.0522
     39 H9        -25.3935   14.3892   -4.6643 H         1 MOL         0.0522
     40 H10       -25.8809   12.6955   -2.8913 H         1 MOL         0.0286
     41 H11       -24.1621   12.6298   -3.4092 H         1 MOL         0.0286
     42 H12       -26.4273   10.8222   -4.4301 H         1 MOL         0.0297
     43 H13       -25.1475   10.3449   -3.2635 H         1 MOL         0.0297
     44 H14       -23.4115   10.7157   -5.0219 H         1 MOL         0.0683
     45 H15       -22.2678    7.6438   -2.0877 H         1 MOL         0.1030
     46 H16       -23.9474    3.9925   -4.1299 H         1 MOL         0.1841
     47 H17       -24.9155    4.5377   -5.5257 H         1 MOL         0.1841
     48 H18       -25.4205    8.5594   -8.5602 H         1 MOL         0.0624
     49 H19       -25.8799    8.8392  -10.9575 H         1 MOL         0.0616
     50 H20       -26.8758    6.9892  -12.2678 H         1 MOL         0.0617
     51 H21       -27.4156    4.8601  -11.1321 H         1 MOL         0.0622
     52 H22       -27.4933    3.5121   -9.2663 H         1 MOL         0.0616
     53 H23       -27.1079    3.1644   -6.8404 H         1 MOL         0.0616
     54 H24       -25.9785    4.8937   -5.5580 H         1 MOL         0.0616
@<TRIPOS>BOND
     1    1    2 ar 
     2    1    5 ar 
     3   16    1 1  
     4    2    3 ar 
     5    2   20 1  
     6    3    4 ar 
     7    3   19 1  
     8   18    4 ar 
     9    5   18 ar 
    10    7    6 1  
    11    8    7 1  
    12    8    9 2  
    13   10    8 am 
    14   11   10 1  
    15   10   12 1  
    16   15   11 1  
    17   13   12 1  
    18   14   13 1  
    19   15   14 1  
    20   15   16 1  
    21   16   17 1  
    22   17   20 2  
    23   20   21 1  
    24   21   22 ar 
    25   21   30 ar 
    26   22   23 ar 
    27   22   27 ar 
    28   23   24 ar 
    29   24   25 ar 
    30   25   26 ar 
    31   26   27 ar 
    32   27   28 ar 
    33   28   29 ar 
    34   29   30 ar 
    35    6   31 1  
    36    6   32 1  
    37    6   33 1  
    38    7   34 1  
    39    7   35 1  
    40   11   36 1  
    41   11   37 1  
    42   12   38 1  
    43   12   39 1  
    44   13   40 1  
    45   13   41 1  
    46   14   42 1  
    47   14   43 1  
    48   15   44 1  
    49   18   45 1  
    50   19   46 1  
    51   19   47 1  
    52   23   48 1  
    53   24   49 1  
    54   25   50 1  
    55   26   51 1  
    56   28   52 1  
    57   29   53 1  
    58   30   54 1  
@<TRIPOS>SUBSTRUCTURE
     1 MOL         1

