### 
### Created by X-TOOL on Mon Aug  2 16:16:31 2021
### 

@<TRIPOS>MOLECULE
6qge_ligand
   65    69     1     0     0
SMALL
GAST_HUCK


@<TRIPOS>ATOM
      1 C10       -18.2140    6.8110   -0.7220 C.3       1 J1E         0.1195
      2 C13       -19.9020    9.0480   -1.3230 C.3       1 J1E         0.1338
      3 C15       -22.3800   10.5680   -1.0630 C.3       1 J1E         0.0251
      4 C17       -24.6900    9.6490   -0.7870 C.3       1 J1E         0.1064
      5 C20       -27.8580    8.1040    2.8760 C.ar      1 J1E        -0.0216
      6 C21       -27.8770    9.1760    3.7800 C.ar      1 J1E        -0.0268
      7 C22       -28.6220    9.1270    4.9640 C.ar      1 J1E         0.1281
      8 C24       -29.3540    6.9480    4.4490 C.ar      1 J1E        -0.0678
      9 C01       -13.0050    8.5390    1.4990 C.ar      1 J1E        -0.0268
     10 C02       -12.9780    8.6000    0.1090 C.ar      1 J1E        -0.0216
     11 C03       -11.7440    8.8730   -0.4900 C.ar      1 J1E        -0.0640
     12 C04       -10.5980    9.1060    0.2560 C.ar      1 J1E        -0.0678
     13 C05       -10.6280    9.0580    1.6380 C.ar      1 J1E        -0.0325
     14 C06       -11.8570    8.7780    2.2210 C.ar      1 J1E         0.1281
     15 C07       -14.1720    8.3520   -0.6580 C.2       1 J1E         0.0691
     16 C08       -15.4920    8.4100   -0.2840 C.2       1 J1E         0.0882
     17 C09       -19.7290    6.7280   -0.9680 C.3       1 J1E         0.1122
     18 C11       -17.6150    8.0250   -1.3500 C.3       1 J1E         0.1476
     19 C12       -18.3810    9.2680   -1.1770 C.3       1 J1E         0.1266
     20 C14       -20.3550    5.6180   -0.1210 C.3       1 J1E         0.0730
     21 C16       -23.1940    9.4620   -0.4020 C.3       1 J1E         0.0950
     22 C19       -26.2110    9.2450    1.2000 C.2       1 J1E         0.0878
     23 F01       -11.9110    8.7110    3.5520 F         1 J1E        -0.1847
     24 N01       -14.2080    7.9680   -2.0010 N.2       1 J1E        -0.2165
     25 N02       -15.4230    7.8040   -2.3870 N.2       1 J1E        -0.0900
     26 N03       -16.2650    8.0700   -1.3940 N.pl3     1 J1E        -0.1587
     27 N04       -25.6210    8.8490   -0.0010 N.pl3     1 J1E        -0.1645
     28 N05       -26.0710    7.5820   -0.2840 N.2       1 J1E        -0.0904
     29 N06       -26.8840    7.1960    0.6500 N.2       1 J1E        -0.2165
     30 O01       -20.3310    7.9370   -0.5600 O.3       1 J1E        -0.3552
     31 O02       -17.9850    7.0020    0.6660 O.3       1 J1E        -0.3857
     32 O03       -21.7360    5.5120   -0.4350 O.3       1 J1E        -0.3924
     33 O04       -17.9540   10.2350   -2.1030 O.3       1 J1E        -0.3849
     34 O05       -23.0580    9.5220    1.0390 O.3       1 J1E        -0.3879
     35 S01       -20.6620   10.5350   -0.5780 S.3       1 J1E        -0.1244
     36 C18       -27.0330    8.2030    1.6430 C.2       1 J1E         0.0691
     37 C23       -29.3780    8.0200    5.3320 C.ar      1 J1E        -0.0325
     38 C25       -28.6090    6.9840    3.2580 C.ar      1 J1E        -0.0640
     39 F02       -28.6160   10.1790    5.7850 F         1 J1E        -0.1847
     40 H1        -17.7245    5.8971   -1.0897 H         1 J1E         0.0655
     41 H2        -20.1853    8.9266   -2.3789 H         1 J1E         0.0740
     42 H3        -22.8085   11.5401   -0.7777 H         1 J1E         0.0403
     43 H4        -22.4408   10.4466   -2.1546 H         1 J1E         0.0403
     44 H5        -24.8094    9.3740   -1.8453 H         1 J1E         0.0682
     45 H6        -24.9495   10.7094   -0.6521 H         1 J1E         0.0682
     46 H7        -27.2997   10.0657    3.5560 H         1 J1E         0.0566
     47 H8        -29.9263    6.0582    4.6854 H         1 J1E         0.0596
     48 H9        -13.9296    8.3034    2.0134 H         1 J1E         0.0566
     49 H10       -11.6811    8.9035   -1.5718 H         1 J1E         0.0548
     50 H11        -9.6662    9.3288   -0.2511 H         1 J1E         0.0596
     51 H12        -9.7393    9.2298    2.2344 H         1 J1E         0.0569
     52 H13       -15.8682    8.6743    0.7032 H         1 J1E         0.1078
     53 H14       -19.9210    6.5439   -2.0354 H         1 J1E         0.0646
     54 H15       -17.8254    7.8238   -2.4108 H         1 J1E         0.0746
     55 H16       -18.1871    9.6468   -0.1626 H         1 J1E         0.0663
     56 H17       -20.2380    5.8592    0.9458 H         1 J1E         0.0584
     57 H18       -19.8542    4.6630   -0.3381 H         1 J1E         0.0584
     58 H19       -22.8396    8.4839   -0.7594 H         1 J1E         0.0632
     59 H20       -26.0584   10.1981    1.7042 H         1 J1E         0.1077
     60 H21       -17.0508    7.0667    0.8257 H         1 J1E         0.2100
     61 H22       -22.1666    6.3378   -0.2473 H         1 J1E         0.2095
     62 H23       -18.0869    9.9077   -2.9849 H         1 J1E         0.2101
     63 H24       -23.5769    8.8312    1.4340 H         1 J1E         0.2099
     64 H25       -29.9512    7.9949    6.2517 H         1 J1E         0.0569
     65 H26       -28.6154    6.1140    2.6113 H         1 J1E         0.0548
@<TRIPOS>BOND
     1   17    1 1  
     2   18    1 1  
     3    1   31 1  
     4    2   19 1  
     5    2   30 1  
     6   35    2 1  
     7   21    3 1  
     8    3   35 1  
     9    4   21 1  
    10   27    4 1  
    11    5    6 ar 
    12   36    5 1  
    13    5   38 ar 
    14    6    7 ar 
    15    7   37 ar 
    16    7   39 1  
    17    8   37 ar 
    18   38    8 ar 
    19   10    9 ar 
    20    9   14 ar 
    21   10   11 ar 
    22   15   10 1  
    23   11   12 ar 
    24   12   13 ar 
    25   14   13 ar 
    26   14   23 1  
    27   16   15 2  
    28   15   24 1  
    29   26   16 1  
    30   17   20 1  
    31   30   17 1  
    32   19   18 1  
    33   18   26 1  
    34   19   33 1  
    35   20   32 1  
    36   21   34 1  
    37   22   27 1  
    38   22   36 2  
    39   24   25 2  
    40   25   26 1  
    41   27   28 1  
    42   28   29 2  
    43   29   36 1  
    44    1   40 1  
    45    2   41 1  
    46    3   42 1  
    47    3   43 1  
    48    4   44 1  
    49    4   45 1  
    50    6   46 1  
    51    8   47 1  
    52    9   48 1  
    53   11   49 1  
    54   12   50 1  
    55   13   51 1  
    56   16   52 1  
    57   17   53 1  
    58   18   54 1  
    59   19   55 1  
    60   20   56 1  
    61   20   57 1  
    62   21   58 1  
    63   22   59 1  
    64   31   60 1  
    65   32   61 1  
    66   33   62 1  
    67   34   63 1  
    68   37   64 1  
    69   38   65 1  
@<TRIPOS>SUBSTRUCTURE
     1 J1E         1

