### 
### Created by X-TOOL on Mon Aug  2 16:16:31 2021
### 

@<TRIPOS>MOLECULE
6qgf_ligand
   65    69     1     0     0
SMALL
GAST_HUCK


@<TRIPOS>ATOM
      1 C02       -13.1850    8.5630   -0.0550 C.ar      1 J0T        -0.0216
      2 C03       -11.9410    8.7720   -0.6720 C.ar      1 J0T        -0.0640
      3 C05       -10.7730    9.0140    1.4570 C.ar      1 J0T        -0.0325
      4 C06       -12.0160    8.7790    2.0390 C.ar      1 J0T         0.1281
      5 C08       -14.3620    8.3150   -0.8040 C.2       1 J0T         0.0691
      6 C12       -15.7010    8.2810   -0.4270 C.2       1 J0T         0.0882
      7 C14       -18.3720    6.5730   -0.8440 C.3       1 J0T         0.1195
      8 C15       -17.8720    7.7960   -1.6490 C.3       1 J0T         0.1476
      9 C16       -18.6890    9.0550   -1.2550 C.3       1 J0T         0.1266
     10 C24       -22.7660    9.6360   -1.1750 C.3       1 J0T         0.0251
     11 C33       -28.7850    9.3050    3.0000 C.ar      1 J0T        -0.0216
     12 C35       -30.7820    9.7520    4.3250 C.ar      1 J0T         0.1281
     13 C37       -29.4980    7.8530    4.8480 C.ar      1 J0T        -0.0678
     14 C01       -13.1970    8.5260    1.3390 C.ar      1 J0T        -0.0268
     15 C04       -10.7710    8.9970    0.0610 C.ar      1 J0T        -0.0678
     16 C13       -19.8820    6.4400   -1.0910 C.3       1 J0T         0.1122
     17 C17       -20.1590    8.7600   -1.4810 C.3       1 J0T         0.1338
     18 C20       -20.4150    5.2950   -0.1920 C.3       1 J0T         0.0730
     19 C25       -23.7490    9.9280   -0.0530 C.3       1 J0T         0.0950
     20 C27       -25.1190    9.3770   -0.5030 C.3       1 J0T         0.1064
     21 C30       -27.8510    9.6370    1.9200 C.2       1 J0T         0.0691
     22 C31       -26.8070    8.9250    1.3520 C.2       1 J0T         0.0878
     23 C34       -29.9120   10.0930    3.2900 C.ar      1 J0T        -0.0268
     24 C36       -30.6160    8.6240    5.1370 C.ar      1 J0T        -0.0325
     25 C38       -28.6190    8.1810    3.8070 C.ar      1 J0T        -0.0640
     26 F07       -12.0430    8.7270    3.3860 F         1 J0T        -0.1847
     27 F39       -31.8410   10.5370    4.5560 F         1 J0T        -0.1847
     28 N09       -14.3660    7.9710   -2.1580 N.2       1 J0T        -0.2165
     29 N10       -15.5550    7.7840   -2.5830 N.2       1 J0T        -0.0900
     30 N11       -16.4330    7.9540   -1.5500 N.pl3     1 J0T        -0.1587
     31 N28       -26.2420    9.7250    0.3480 N.pl3     1 J0T        -0.1645
     32 N29       -26.9560   10.8860    0.3050 N.2       1 J0T        -0.0904
     33 N32       -27.8640   10.8490    1.2110 N.2       1 J0T        -0.2165
     34 O18       -20.5090    7.6390   -0.6770 O.3       1 J0T        -0.3552
     35 O19       -18.1400    6.8070    0.5500 O.3       1 J0T        -0.3857
     36 O21       -21.7760    5.1290   -0.5070 O.3       1 J0T        -0.3924
     37 O22       -18.2190   10.0440   -2.1340 O.3       1 J0T        -0.3849
     38 O26       -23.3570    9.2370    1.1030 O.3       1 J0T        -0.3879
     39 S23       -21.0930   10.1620   -0.8260 S.3       1 J0T        -0.1244
     40 H1        -11.8854    8.7585   -1.7545 H         1 J0T         0.0548
     41 H2         -9.8782    9.1957    2.0413 H         1 J0T         0.0569
     42 H3        -16.0972    8.4760    0.5684 H         1 J0T         0.1078
     43 H4        -17.8491    5.6606   -1.1666 H         1 J0T         0.0655
     44 H5        -18.0883    7.5987   -2.7093 H         1 J0T         0.0746
     45 H6        -18.5164    9.3421   -0.2073 H         1 J0T         0.0663
     46 H7        -23.1105   10.1552   -2.0815 H         1 J0T         0.0403
     47 H8        -22.7577    8.5508   -1.3548 H         1 J0T         0.0403
     48 H9        -29.2991    6.9708    5.4456 H         1 J0T         0.0596
     49 H10       -14.1135    8.3032    1.8733 H         1 J0T         0.0566
     50 H11        -9.8395    9.1623   -0.4682 H         1 J0T         0.0596
     51 H12       -20.0882    6.2358   -2.1520 H         1 J0T         0.0646
     52 H13       -20.3768    8.5829   -2.5446 H         1 J0T         0.0740
     53 H14       -20.3021    5.5630    0.8689 H         1 J0T         0.0584
     54 H15       -19.8633    4.3655   -0.3961 H         1 J0T         0.0584
     55 H16       -23.8045   11.0086    0.1449 H         1 J0T         0.0632
     56 H17       -25.0480    8.2799   -0.5387 H         1 J0T         0.0682
     57 H18       -25.3254    9.7642   -1.5117 H         1 J0T         0.0682
     58 H19       -26.4833    7.9243    1.6343 H         1 J0T         0.1077
     59 H20       -30.1082   10.9805    2.6993 H         1 J0T         0.0566
     60 H21       -31.3084    8.3713    5.9319 H         1 J0T         0.0569
     61 H22       -27.7716    7.5310    3.6211 H         1 J0T         0.0548
     62 H23       -17.2064    6.8896    0.7050 H         1 J0T         0.2100
     63 H24       -22.2412    5.9389   -0.3330 H         1 J0T         0.2095
     64 H25       -18.3319    9.7493   -3.0300 H         1 J0T         0.2101
     65 H26       -23.2886    8.3097    0.9084 H         1 J0T         0.2099
@<TRIPOS>BOND
     1    1    2 ar 
     2    5    1 1  
     3    1   14 ar 
     4    2   15 ar 
     5    4    3 ar 
     6   15    3 ar 
     7   14    4 ar 
     8    4   26 1  
     9    6    5 2  
    10    5   28 1  
    11   30    6 1  
    12    8    7 1  
    13   16    7 1  
    14    7   35 1  
    15    9    8 1  
    16    8   30 1  
    17   17    9 1  
    18    9   37 1  
    19   19   10 1  
    20   10   39 1  
    21   21   11 1  
    22   11   23 ar 
    23   11   25 ar 
    24   23   12 ar 
    25   12   24 ar 
    26   12   27 1  
    27   13   24 ar 
    28   25   13 ar 
    29   16   18 1  
    30   34   16 1  
    31   17   34 1  
    32   39   17 1  
    33   18   36 1  
    34   20   19 1  
    35   19   38 1  
    36   31   20 1  
    37   22   21 2  
    38   21   33 1  
    39   22   31 1  
    40   28   29 2  
    41   29   30 1  
    42   31   32 1  
    43   32   33 2  
    44    2   40 1  
    45    3   41 1  
    46    6   42 1  
    47    7   43 1  
    48    8   44 1  
    49    9   45 1  
    50   10   46 1  
    51   10   47 1  
    52   13   48 1  
    53   14   49 1  
    54   15   50 1  
    55   16   51 1  
    56   17   52 1  
    57   18   53 1  
    58   18   54 1  
    59   19   55 1  
    60   20   56 1  
    61   20   57 1  
    62   22   58 1  
    63   23   59 1  
    64   24   60 1  
    65   25   61 1  
    66   35   62 1  
    67   36   63 1  
    68   37   64 1  
    69   38   65 1  
@<TRIPOS>SUBSTRUCTURE
     1 J0T         1

