### 
### Created by X-TOOL on Mon Aug  2 16:16:31 2021
### 

@<TRIPOS>MOLECULE
6qgg_ligand
  108   113     1     0     0
SMALL
GAST_HUCK


@<TRIPOS>ATOM
      1 C1        -18.4780    6.5020   -7.7750 C.ar      1 J1H        -0.0554
      2 C2        -19.5250    7.1770   -7.1770 C.ar      1 J1H        -0.0485
      3 C3        -20.7880    7.2100   -7.7570 C.ar      1 J1H         0.0394
      4 CL4       -22.1260    8.0760   -6.9860 Cl        1 J1H        -0.0713
      5 C5        -21.0130    6.5530   -8.9630 C.ar      1 J1H        -0.0485
      6 C6        -19.9760    5.8820   -9.5580 C.ar      1 J1H        -0.0554
      7 C7        -18.6980    5.8400   -8.9880 C.ar      1 J1H        -0.0212
      8 C8        -17.6310    5.0960   -9.6840 C.ar      1 J1H        -0.0101
      9 C9        -17.1240    4.0040   -8.9080 C.ar      1 J1H        -0.0599
     10 C10       -16.1280    3.1870   -9.3760 C.ar      1 J1H        -0.0678
     11 C11       -15.6060    3.4320  -10.6320 C.ar      1 J1H        -0.0680
     12 C12       -16.0760    4.4800  -11.4070 C.ar      1 J1H        -0.0539
     13 C13       -17.1140    5.3350  -10.9250 C.ar      1 J1H         0.0107
     14 C14       -17.5980    6.4420  -11.7630 C.3       1 J1H         0.0035
     15 N15       -16.4420    7.4270  -11.9810 N.4       1 J1H         0.2504
     16 C18       -15.9120    7.9410  -10.6580 C.3       1 J1H        -0.0100
     17 C19       -14.7650    8.9480  -10.8660 C.3       1 J1H         0.0681
     18 C16       -16.9710    8.5760  -12.7320 C.3       1 J1H        -0.0100
     19 C17       -15.8880    9.6240  -12.9950 C.3       1 J1H         0.0681
     20 N20       -15.1580    9.9900  -11.7650 N.pl3     1 J1H        -0.2958
     21 C21       -14.3650   11.1780  -11.7830 C.ar      1 J1H         0.0460
     22 C24       -14.6370   12.1960  -12.6850 C.ar      1 J1H        -0.0381
     23 C25       -13.8700   13.3460  -12.7030 C.ar      1 J1H        -0.0534
     24 C22       -13.3250   11.3370  -10.9130 C.ar      1 J1H        -0.0381
     25 C23       -12.5560   12.4680  -10.9160 C.ar      1 J1H        -0.0534
     26 C26       -12.8240   13.4800  -11.8110 C.ar      1 J1H         0.0377
     27 C27       -11.9720   14.7460  -11.8220 C.2       1 J1H         0.2151
     28 O28       -12.3340   15.7440  -12.5670 O.2       1 J1H        -0.3892
     29 N29       -11.0010   14.8480  -10.8880 N.am      1 J1H        -0.1564
     30 S30       -10.2390   16.1880  -10.5510 S.o2      1 J1H         0.0857
     31 O31        -9.3270   15.8590   -9.4530 O.2       1 J1H        -0.1471
     32 O32        -9.5900   16.7930  -11.7410 O.2       1 J1H        -0.1471
     33 C33       -11.4290   17.3240   -9.9530 C.ar      1 J1H         0.1080
     34 C34       -11.7960   17.2460   -8.6230 C.ar      1 J1H        -0.0029
     35 C35       -12.7270   18.1110   -8.1000 C.ar      1 J1H         0.2184
     36 N36       -13.0290   17.9280   -6.6830 N.2       1 J1H         0.3063
     37 O38       -12.4290   17.0730   -6.0750 O.2       1 J1H         0.1710
     38 O37       -13.9070   18.6570   -6.1010 O.2       1 J1H         0.1710
     39 C39       -12.0120   18.3050  -10.8000 C.ar      1 J1H        -0.0409
     40 C40       -12.9620   19.1870  -10.2600 C.ar      1 J1H        -0.0333
     41 C41       -13.3150   19.0800   -8.8950 C.ar      1 J1H         0.0839
     42 N42       -14.2740   19.9530   -8.3010 N.pl3     1 J1H        -0.3121
     43 C43       -14.9720   20.9060   -9.0260 C.3       1 J1H         0.0528
     44 C44       -15.6760   21.8360   -7.9570 C.3       1 J1H         0.0112
     45 C45       -16.3440   23.0240   -8.6400 C.3       1 J1H        -0.0271
     46 N46       -16.8840   24.0370   -7.6490 N.4       1 J1H         0.2506
     47 C47       -17.6280   23.3390   -6.5730 C.3       1 J1H        -0.0402
     48 C49       -17.7940   24.9680   -8.3560 C.3       1 J1H        -0.0402
     49 C48       -15.7860   24.7810   -7.0770 C.3       1 J1H         0.0225
     50 C58       -14.8400   25.1460   -8.2140 C.2       1 J1H         0.0813
     51 O60       -13.7360   24.6030   -8.2990 O.co2     1 J1H        -0.5645
     52 O59       -15.1790   25.9870   -9.0540 O.co2     1 J1H        -0.5645
     53 C50       -16.0320   20.2660   -9.9650 C.3       1 J1H         0.0299
     54 S51       -17.2570   19.1700   -9.1280 S.3       1 J1H        -0.0994
     55 C52       -16.3990   17.5880   -9.2350 C.ar      1 J1H         0.0154
     56 C53       -16.0280   17.0640  -10.4410 C.ar      1 J1H        -0.0498
     57 C54       -15.3790   15.8630  -10.4760 C.ar      1 J1H        -0.0678
     58 C55       -15.1010   15.1830   -9.2910 C.ar      1 J1H        -0.0687
     59 C56       -15.4820   15.7310   -8.1200 C.ar      1 J1H        -0.0678
     60 C57       -16.1140   16.9000   -8.0840 C.ar      1 J1H        -0.0498
     61 H1        -17.4988    6.4855   -7.3104 H         1 J1H         0.0613
     62 H2        -19.3583    7.6909   -6.2372 H         1 J1H         0.0620
     63 H3        -21.9934    6.5715   -9.4250 H         1 J1H         0.0620
     64 H4        -20.1507    5.3692  -10.4969 H         1 J1H         0.0613
     65 H5        -17.5393    3.8187   -7.9240 H         1 J1H         0.0605
     66 H6        -15.7574    2.3656   -8.7735 H         1 J1H         0.0561
     67 H7        -14.8175    2.7951  -11.0164 H         1 J1H         0.0602
     68 H8        -15.6516    4.6529  -12.3894 H         1 J1H         0.0559
     69 H9        -18.4311    6.9531  -11.2583 H         1 J1H         0.0987
     70 H10       -17.9408    6.0514  -12.7325 H         1 J1H         0.0987
     71 H11       -15.7009    6.9784  -12.4963 H         1 J1H         0.2050
     72 H12       -15.5396    7.0913  -10.0670 H         1 J1H         0.0834
     73 H13       -16.7290    8.4366  -10.1132 H         1 J1H         0.0834
     74 H14       -13.8943    8.4212  -11.2837 H         1 J1H         0.0569
     75 H15       -14.4948    9.3916   -9.8964 H         1 J1H         0.0569
     76 H16       -17.7822    9.0391  -12.1512 H         1 J1H         0.0834
     77 H17       -17.3660    8.2214  -13.6955 H         1 J1H         0.0834
     78 H18       -16.3612   10.5269  -13.4083 H         1 J1H         0.0569
     79 H19       -15.1719    9.2184  -13.7248 H         1 J1H         0.0569
     80 H20       -15.4594   12.0887  -13.3830 H         1 J1H         0.0530
     81 H21       -14.0879   14.1366  -13.4119 H         1 J1H         0.0636
     82 H22       -13.1035   10.5483  -10.2031 H         1 J1H         0.0530
     83 H23       -11.7359   12.5679  -10.2142 H         1 J1H         0.0636
     84 H24       -10.7501   14.0243  -10.3795 H         1 J1H         0.2133
     85 H25       -11.3447   16.4944   -7.9854 H         1 J1H         0.0677
     86 H26       -11.7285   18.3712  -11.8442 H         1 J1H         0.0647
     87 H27       -13.4213   19.9443  -10.8850 H         1 J1H         0.0533
     88 H28       -14.4555   19.8717   -7.2904 H         1 J1H         0.1792
     89 H29       -14.2700   21.4956   -9.6339 H         1 J1H         0.0564
     90 H30       -14.9224   22.2044   -7.2454 H         1 J1H         0.0339
     91 H31       -16.4372   21.2543   -7.4165 H         1 J1H         0.0339
     92 H32       -17.1774   22.6540   -9.2553 H         1 J1H         0.0816
     93 H33       -15.6046   23.5214   -9.2849 H         1 J1H         0.0816
     94 H34       -18.0173   24.0782   -5.8574 H         1 J1H         0.0778
     95 H35       -16.9531   22.6442   -6.0517 H         1 J1H         0.0778
     96 H36       -18.4657   22.7769   -7.0115 H         1 J1H         0.0778
     97 H37       -17.2414   25.4855   -9.1541 H         1 J1H         0.0778
     98 H38       -18.1876   25.7078   -7.6435 H         1 J1H         0.0778
     99 H39       -18.6286   24.4020   -8.7955 H         1 J1H         0.0778
    100 H40       -15.2600   24.1632   -6.3343 H         1 J1H         0.0989
    101 H41       -16.1625   25.6945   -6.5936 H         1 J1H         0.0989
    102 H42       -15.5014   19.6691  -10.7214 H         1 J1H         0.0424
    103 H43       -16.5839   21.0786  -10.4601 H         1 J1H         0.0424
    104 H44       -16.2464   17.5958  -11.3600 H         1 J1H         0.0565
    105 H45       -15.0794   15.4375  -11.4269 H         1 J1H         0.0600
    106 H46       -14.5867   14.2290   -9.3111 H         1 J1H         0.0559
    107 H47       -15.2698   15.2104   -7.1932 H         1 J1H         0.0600
    108 H48       -16.4092   17.3165   -7.1277 H         1 J1H         0.0565
@<TRIPOS>BOND
     1    1    2 ar 
     2    1    7 ar 
     3    2    3 ar 
     4    3    4 1  
     5    3    5 ar 
     6    5    6 ar 
     7    6    7 ar 
     8    7    8 1  
     9    8    9 ar 
    10    8   13 ar 
    11    9   10 ar 
    12   10   11 ar 
    13   11   12 ar 
    14   12   13 ar 
    15   13   14 1  
    16   14   15 1  
    17   15   16 1  
    18   15   18 1  
    19   16   17 1  
    20   17   20 1  
    21   18   19 1  
    22   19   20 1  
    23   20   21 1  
    24   21   22 ar 
    25   21   24 ar 
    26   22   23 ar 
    27   23   26 ar 
    28   24   25 ar 
    29   25   26 ar 
    30   26   27 1  
    31   27   28 2  
    32   27   29 am 
    33   29   30 am 
    34   30   31 2  
    35   30   32 2  
    36   30   33 1  
    37   33   34 ar 
    38   33   39 ar 
    39   34   35 ar 
    40   35   36 1  
    41   35   41 ar 
    42   36   37 2  
    43   36   38 2  
    44   39   40 ar 
    45   40   41 ar 
    46   41   42 1  
    47   42   43 1  
    48   43   44 1  
    49   43   53 1  
    50   44   45 1  
    51   45   46 1  
    52   46   47 1  
    53   46   48 1  
    54   46   49 1  
    55   49   50 1  
    56   50   51 ar 
    57   50   52 ar 
    58   53   54 1  
    59   54   55 1  
    60   55   56 ar 
    61   55   60 ar 
    62   56   57 ar 
    63   57   58 ar 
    64   58   59 ar 
    65   59   60 ar 
    66    1   61 1  
    67    2   62 1  
    68    5   63 1  
    69    6   64 1  
    70    9   65 1  
    71   10   66 1  
    72   11   67 1  
    73   12   68 1  
    74   14   69 1  
    75   14   70 1  
    76   15   71 1  
    77   16   72 1  
    78   16   73 1  
    79   17   74 1  
    80   17   75 1  
    81   18   76 1  
    82   18   77 1  
    83   19   78 1  
    84   19   79 1  
    85   22   80 1  
    86   23   81 1  
    87   24   82 1  
    88   25   83 1  
    89   29   84 1  
    90   34   85 1  
    91   39   86 1  
    92   40   87 1  
    93   42   88 1  
    94   43   89 1  
    95   44   90 1  
    96   44   91 1  
    97   45   92 1  
    98   45   93 1  
    99   47   94 1  
   100   47   95 1  
   101   47   96 1  
   102   48   97 1  
   103   48   98 1  
   104   48   99 1  
   105   49  100 1  
   106   49  101 1  
   107   53  102 1  
   108   53  103 1  
   109   56  104 1  
   110   57  105 1  
   111   58  106 1  
   112   59  107 1  
   113   60  108 1  
@<TRIPOS>SUBSTRUCTURE
     1 J1H         1

