### 
### Created by X-TOOL on Mon Aug  2 16:16:31 2021
### 

@<TRIPOS>MOLECULE
6qgh_ligand
  122   128     1     0     0
SMALL
GAST_HUCK


@<TRIPOS>ATOM
      1 C4         -0.9430   -2.0120   16.4300 C.ar      1 MOL        -0.0663
      2 C5          1.1760   -3.1590   16.4420 C.ar      1 MOL        -0.0663
      3 C6          1.1050    5.0820   10.5640 C.ar      1 MOL        -0.0534
      4 C7         -0.7510    5.5780   12.0030 C.ar      1 MOL        -0.0534
      5 C8          1.5630    4.1490   11.5190 C.ar      1 MOL        -0.0381
      6 C10        -1.9510    7.1450    5.2970 C.ar      1 MOL        -0.0408
      7 C13        -1.6680    7.7810    6.5150 C.ar      1 MOL        -0.0466
      8 C15         0.6570   -4.1370   15.5870 C.ar      1 MOL        -0.0567
      9 C17         0.3940   -2.0770   16.8300 C.ar      1 MOL        -0.0459
     10 C20        -3.1340    6.4070    5.1660 C.ar      1 MOL         0.0634
     11 C21        -1.8140    3.2750    5.2080 C.ar      1 MOL         0.0154
     12 C22        -2.5300    7.6040    7.6140 C.ar      1 MOL         0.1014
     13 C24        -0.6440   -4.0280   15.1310 C.ar      1 MOL         0.0314
     14 C26         1.9760   -0.2160   17.5380 C.2       1 MOL        -0.0121
     15 C28         0.3580   -1.1400   19.3000 C.3       1 MOL        -0.0354
     16 C1         -1.7660    3.2740    8.0060 C.ar      1 MOL        -0.0687
     17 C2         -2.8190    2.6610    7.3270 C.ar      1 MOL        -0.0678
     18 C3         -0.7180    3.8730    7.2790 C.ar      1 MOL        -0.0678
     19 C9         -0.2900    4.6770   12.9510 C.ar      1 MOL        -0.0381
     20 C11        -2.8430    2.6550    5.9450 C.ar      1 MOL        -0.0498
     21 C12        -0.7420    3.8610    5.8770 C.ar      1 MOL        -0.0498
     22 C14        -1.4600   -2.9680   15.5750 C.ar      1 MOL        -0.0567
     23 C16        -3.7300    6.9320    7.4480 C.ar      1 MOL        -0.0215
     24 C18        -0.0260    5.8110   10.8210 C.ar      1 MOL         0.0377
     25 C19         0.8230    3.9200   12.6860 C.ar      1 MOL         0.0460
     26 C23        -3.9980    6.2710    6.2790 C.ar      1 MOL         0.1161
     27 C25         0.9290   -1.0760   17.8520 C.2       1 MOL        -0.0491
     28 C27        -0.5490    6.8500    9.8120 C.2       1 MOL         0.2151
     29 C29         2.5290    0.8350   18.5960 C.3       1 MOL        -0.0089
     30 C30         0.5910    0.1850   20.0160 C.3       1 MOL        -0.0417
     31 C31         2.7000    2.6560   13.5600 C.3       1 MOL         0.0681
     32 C32         0.5140    2.8490   14.8650 C.3       1 MOL         0.0681
     33 C33         2.8650    1.2550   14.1670 C.3       1 MOL        -0.0098
     34 C34         0.8230    1.4680   15.4820 C.3       1 MOL        -0.0098
     35 C35        -4.0500    4.2800   -1.1640 C.3       1 MOL        -0.0078
     36 C36        -3.0700    6.2790   -2.1100 C.3       1 MOL        -0.0078
     37 C37        -4.9860    4.1720   -2.3680 C.3       1 MOL         0.0878
     38 C38        -4.0300    6.2390   -3.2720 C.3       1 MOL         0.0878
     39 C39         2.0710    0.4830   20.0170 C.3       1 MOL        -0.0228
     40 C40         2.8210   -0.7240   20.4810 C.3       1 MOL        -0.0576
     41 C41         2.3560    1.6510   20.9720 C.3       1 MOL        -0.0576
     42 C42         2.5040   -0.1480   16.0950 C.3       1 MOL         0.0019
     43 C43        -3.4990    5.4760    1.5200 C.3       1 MOL         0.0107
     44 C44        -2.7770    5.7720    0.2070 C.3       1 MOL        -0.0296
     45 C45        -1.3960    4.9090    2.9230 C.3       1 MOL         0.0295
     46 C46        -2.6100    5.8700    2.7930 C.3       1 MOL         0.0510
     47 C47        -6.6350    6.6600    5.3900 C.3       1 MOL         0.5245
     48 N48         1.2820    3.0510   13.6080 N.pl3     1 MOL        -0.2958
     49 N51        -3.4390    5.7440    3.9860 N.pl3     1 MOL        -0.3173
     50 N52        -1.6600    7.4590   10.0730 N.am      1 MOL        -0.1565
     51 N49         2.2890    1.2260   15.5420 N.4       1 MOL         0.2518
     52 N50        -3.7140    5.7000   -0.9120 N.4       1 MOL         0.2385
     53 O53         0.0470    7.0740    8.7590 O.2       1 MOL        -0.3892
     54 O54        -6.0880    5.1910    7.4440 O.2       1 MOL        -0.1632
     55 O55        -5.4890    4.3250    5.2230 O.2       1 MOL        -0.1632
     56 O56        -1.3240    9.6490    8.8700 O.2       1 MOL        -0.1473
     57 O57        -3.5840    8.9010    9.6230 O.2       1 MOL        -0.1473
     58 O58        -4.4090    4.8260   -3.5470 O.3       1 MOL        -0.3693
     59 F59        -6.9170    7.6340    6.2850 F         1 MOL        -0.1501
     60 F60        -6.0220    7.2120    4.3020 F         1 MOL        -0.1501
     61 F61        -7.7660    6.0370    5.0450 F         1 MOL        -0.1501
     62 S62        -1.8600    3.2110    3.4260 S.3       1 MOL        -0.0995
     63 S63        -5.4910    5.5010    6.1280 S.o2      1 MOL         0.0871
     64 S64        -2.2740    8.4700    9.0980 S.o2      1 MOL         0.0844
     65 CL6        -1.2950   -5.2460   14.1060 Cl        1 MOL        -0.0781
     66 H1         -1.5768   -1.2100   16.7908 H         1 MOL         0.0546
     67 H2          2.1941   -3.2453   16.8042 H         1 MOL         0.0546
     68 H3          1.6443    5.2207    9.6340 H         1 MOL         0.0636
     69 H4         -1.6805    6.1085   12.1751 H         1 MOL         0.0636
     70 H5          2.4878    3.6095   11.3492 H         1 MOL         0.0530
     71 H6         -1.2605    7.2241    4.4651 H         1 MOL         0.0516
     72 H7         -0.7881    8.4070    6.6097 H         1 MOL         0.0602
     73 H8          1.2718   -4.9765   15.2833 H         1 MOL         0.0600
     74 H9          0.8616   -1.9459   19.8540 H         1 MOL         0.0344
     75 H10        -0.7219   -1.3444   19.2562 H         1 MOL         0.0344
     76 H11        -1.7539    3.2895    9.0898 H         1 MOL         0.0559
     77 H12        -3.6199    2.1885    7.8841 H         1 MOL         0.0600
     78 H13         0.1063    4.3428    7.8033 H         1 MOL         0.0600
     79 H14        -0.8071    4.5712   13.8978 H         1 MOL         0.0530
     80 H15        -3.6600    2.1694    5.4237 H         1 MOL         0.0565
     81 H16         0.0713    4.3064    5.3155 H         1 MOL         0.0565
     82 H17        -2.4910   -2.9023   15.2468 H         1 MOL         0.0600
     83 H18        -4.4612    6.9294    8.2482 H         1 MOL         0.0621
     84 H19         2.1555    1.8365   18.3362 H         1 MOL         0.0458
     85 H20         3.6285    0.8336   18.5625 H         1 MOL         0.0458
     86 H21         0.2273    0.1147   21.0517 H         1 MOL         0.0285
     87 H22         0.0524    0.9883   19.4919 H         1 MOL         0.0285
     88 H23         3.0417    2.6446   12.5145 H         1 MOL         0.0569
     89 H24         3.3005    3.3769   14.1342 H         1 MOL         0.0569
     90 H25         0.7876    3.6346   15.5846 H         1 MOL         0.0569
     91 H26        -0.5617    2.9125   14.6442 H         1 MOL         0.0569
     92 H27         3.9344    1.0017   14.2143 H         1 MOL         0.0834
     93 H28         2.3417    0.5207   13.5370 H         1 MOL         0.0834
     94 H29         0.3545    0.6861   14.8663 H         1 MOL         0.0834
     95 H30         0.4102    1.4289   16.5008 H         1 MOL         0.0834
     96 H31        -3.1269    3.7176   -1.3681 H         1 MOL         0.0837
     97 H32        -4.5468    3.8599   -0.2770 H         1 MOL         0.0837
     98 H33        -2.7871    7.3220   -1.9050 H         1 MOL         0.0837
     99 H34        -2.1702    5.6971   -2.3587 H         1 MOL         0.0837
    100 H35        -5.9437    4.6542   -2.1227 H         1 MOL         0.0613
    101 H36        -5.1579    3.1095   -2.5950 H         1 MOL         0.0613
    102 H37        -3.5483    6.6703   -4.1619 H         1 MOL         0.0613
    103 H38        -4.9309    6.8198   -3.0249 H         1 MOL         0.0613
    104 H39         3.8995   -0.5076   20.4820 H         1 MOL         0.0237
    105 H40         2.6166   -1.5658   19.8031 H         1 MOL         0.0237
    106 H41         2.4989   -0.9868   21.4994 H         1 MOL         0.0237
    107 H42         1.8064    2.5424   20.6353 H         1 MOL         0.0237
    108 H43         3.4348    1.8657   20.9771 H         1 MOL         0.0237
    109 H44         2.0309    1.3818   21.9878 H         1 MOL         0.0237
    110 H45         1.9664   -0.8799   15.4743 H         1 MOL         0.1006
    111 H46         3.5791   -0.3806   16.0879 H         1 MOL         0.1006
    112 H47        -3.7281    4.4011    1.5653 H         1 MOL         0.0339
    113 H48        -4.4356    6.0521    1.5485 H         1 MOL         0.0339
    114 H49        -1.9761    5.0329    0.0582 H         1 MOL         0.0815
    115 H50        -2.3412    6.7810    0.2515 H         1 MOL         0.0815
    116 H51        -0.7064    5.3189    3.6756 H         1 MOL         0.0424
    117 H52        -0.8872    4.8569    1.9491 H         1 MOL         0.0424
    118 H53        -2.2523    6.9051    2.6901 H         1 MOL         0.0559
    119 H54        -4.2761    5.1448    3.9516 H         1 MOL         0.1759
    120 H55        -2.1308    7.2651   10.9337 H         1 MOL         0.2133
    121 H56         2.7344    1.9188   16.1231 H         1 MOL         0.2052
    122 H57        -4.5522    6.2151   -0.6925 H         1 MOL         0.2035
@<TRIPOS>BOND
     1    9    1 ar 
     2    1   22 ar 
     3    2    8 ar 
     4    9    2 ar 
     5    3    5 ar 
     6   24    3 ar 
     7    4   19 ar 
     8   24    4 ar 
     9    5   25 ar 
    10    7    6 ar 
    11    6   10 ar 
    12   12    7 ar 
    13    8   13 ar 
    14   27    9 1  
    15   26   10 ar 
    16   10   49 1  
    17   11   20 ar 
    18   11   21 ar 
    19   62   11 1  
    20   12   23 ar 
    21   64   12 1  
    22   22   13 ar 
    23   13   65 1  
    24   14   27 2  
    25   14   29 1  
    26   42   14 1  
    27   27   15 1  
    28   15   30 1  
    29   17   16 ar 
    30   18   16 ar 
    31   20   17 ar 
    32   21   18 ar 
    33   19   25 ar 
    34   23   26 ar 
    35   28   24 1  
    36   25   48 1  
    37   26   63 1  
    38   50   28 am 
    39   28   53 2  
    40   29   39 1  
    41   39   30 1  
    42   31   33 1  
    43   48   31 1  
    44   32   34 1  
    45   48   32 1  
    46   33   51 1  
    47   34   51 1  
    48   35   37 1  
    49   52   35 1  
    50   36   38 1  
    51   52   36 1  
    52   37   58 1  
    53   38   58 1  
    54   39   40 1  
    55   39   41 1  
    56   51   42 1  
    57   43   44 1  
    58   46   43 1  
    59   44   52 1  
    60   46   45 1  
    61   45   62 1  
    62   49   46 1  
    63   47   59 1  
    64   47   60 1  
    65   47   61 1  
    66   63   47 1  
    67   50   64 am 
    68   63   54 2  
    69   63   55 2  
    70   64   56 2  
    71   64   57 2  
    72    1   66 1  
    73    2   67 1  
    74    3   68 1  
    75    4   69 1  
    76    5   70 1  
    77    6   71 1  
    78    7   72 1  
    79    8   73 1  
    80   15   74 1  
    81   15   75 1  
    82   16   76 1  
    83   17   77 1  
    84   18   78 1  
    85   19   79 1  
    86   20   80 1  
    87   21   81 1  
    88   22   82 1  
    89   23   83 1  
    90   29   84 1  
    91   29   85 1  
    92   30   86 1  
    93   30   87 1  
    94   31   88 1  
    95   31   89 1  
    96   32   90 1  
    97   32   91 1  
    98   33   92 1  
    99   33   93 1  
   100   34   94 1  
   101   34   95 1  
   102   35   96 1  
   103   35   97 1  
   104   36   98 1  
   105   36   99 1  
   106   37  100 1  
   107   37  101 1  
   108   38  102 1  
   109   38  103 1  
   110   40  104 1  
   111   40  105 1  
   112   40  106 1  
   113   41  107 1  
   114   41  108 1  
   115   41  109 1  
   116   42  110 1  
   117   42  111 1  
   118   43  112 1  
   119   43  113 1  
   120   44  114 1  
   121   44  115 1  
   122   45  116 1  
   123   45  117 1  
   124   46  118 1  
   125   49  119 1  
   126   50  120 1  
   127   51  121 1  
   128   52  122 1  
@<TRIPOS>SUBSTRUCTURE
     1 MOL         1

