### 
### Created by X-TOOL on Mon Aug  2 16:16:31 2021
### 

@<TRIPOS>MOLECULE
6qgj_ligand
  120   127     1     0     0
SMALL
GAST_HUCK


@<TRIPOS>ATOM
      1 C63         3.4730   -7.0040   -1.7630 C.3       1 J1T        -0.0078
      2 C64         4.3060   -7.0810   -3.0320 C.3       1 J1T         0.0878
      3 O65         4.8460   -5.7730   -3.5140 O.3       1 J1T        -0.3693
      4 C66         5.2630   -4.8050   -2.4980 C.3       1 J1T         0.0878
      5 C67         4.3790   -4.7360   -1.2210 C.3       1 J1T        -0.0078
      6 N62         4.0080   -6.0820   -0.7360 N.4       1 J1T         0.2385
      7 C61         2.9760   -6.0080    0.3150 C.3       1 J1T        -0.0296
      8 C52         3.6850   -5.7100    1.6520 C.3       1 J1T         0.0107
      9 C51         2.9950   -6.2950    2.9020 C.3       1 J1T         0.0510
     10 C53         1.6670   -5.6200    3.3030 C.3       1 J1T         0.0295
     11 S54         2.0540   -3.8650    3.6210 S.3       1 J1T        -0.0995
     12 C55         2.0410   -3.8070    5.4400 C.ar      1 J1T         0.0154
     13 C56         2.9940   -3.0110    6.0870 C.ar      1 J1T        -0.0498
     14 C57         3.0910   -2.8800    7.4750 C.ar      1 J1T        -0.0678
     15 C58         2.2180   -3.5490    8.3230 C.ar      1 J1T        -0.0687
     16 C59         1.2550   -4.3430    7.6960 C.ar      1 J1T        -0.0678
     17 C60         1.1700   -4.4710    6.3050 C.ar      1 J1T        -0.0498
     18 N50         3.9000   -6.1700    4.0540 N.pl3     1 J1T        -0.3173
     19 C40         3.5330   -6.8330    5.2260 C.ar      1 J1T         0.0634
     20 C41         4.3810   -6.6940    6.3110 C.ar      1 J1T         0.1161
     21 C42         4.0980   -7.3190    7.5080 C.ar      1 J1T        -0.0215
     22 S43         5.8250   -5.7280    6.1890 S.o2      1 J1T         0.0871
     23 O48         5.5350   -4.5670    5.3270 O.2       1 J1T        -0.1632
     24 O49         6.2820   -5.4620    7.5940 O.2       1 J1T        -0.1632
     25 C44         7.0380   -6.8360    5.3830 C.3       1 J1T         0.5245
     26 F46         6.3330   -7.4010    4.4050 F         1 J1T        -0.1501
     27 F47         7.4220   -7.7820    6.2500 F         1 J1T        -0.1501
     28 F45         8.1550   -6.2330    4.9670 F         1 J1T        -0.1501
     29 C39         2.3700   -7.6100    5.3260 C.ar      1 J1T        -0.0408
     30 C38         2.0520   -8.2570    6.5180 C.ar      1 J1T        -0.0466
     31 C37         2.9380   -8.0850    7.5790 C.ar      1 J1T         0.1015
     32 S34         2.6850   -8.8210    9.1100 S.o2      1 J1T         0.0845
     33 O35         4.0270   -9.2500    9.5960 O.2       1 J1T        -0.1473
     34 O36         1.9410  -10.1150    8.8880 O.2       1 J1T        -0.1473
     35 N32         2.0660   -7.8490   10.1430 N.am      1 J1T        -0.1549
     36 C31         0.8280   -7.4640    9.9250 C.2       1 J1T         0.2236
     37 O33         0.3170   -7.8630    8.8950 O.2       1 J1T        -0.3839
     38 C5          0.2830   -6.4200   10.8800 C.ar      1 J1T         0.0499
     39 C6          0.9840   -6.0790   12.0280 C.ar      1 J1T        -0.0429
     40 C1          0.5040   -5.1220   12.9160 C.ar      1 J1T        -0.0505
     41 C4         -0.9240   -5.7670   10.6390 C.ar      1 J1T        -0.0429
     42 C3         -1.4170   -4.8120   11.5200 C.ar      1 J1T        -0.0505
     43 C2         -0.7000   -4.4820   12.6730 C.ar      1 J1T        -0.0182
     44 C7         -1.1630   -3.4660   13.6500 C.ar      1 J1T        -0.0216
     45 C12        -2.1190   -2.5500   13.2380 C.ar      1 J1T        -0.0589
     46 C11        -2.5800   -1.5730   14.1140 C.ar      1 J1T        -0.0564
     47 C8         -0.7000   -3.3540   14.9570 C.ar      1 J1T        -0.0589
     48 C9         -1.1500   -2.3860   15.8510 C.ar      1 J1T        -0.0564
     49 C10        -2.1100   -1.4840   15.4170 C.ar      1 J1T        -0.0258
     50 C13        -2.6650   -0.3790   16.3170 C.3       1 J1T         0.0575
     51 C14        -3.3840   -0.7770   17.5930 C.3       1 J1T        -0.0129
     52 N16        -4.8060   -0.5890   17.2980 N.4       1 J1T         0.2380
     53 C17        -5.2050    0.6820   17.9170 C.3       1 J1T        -0.0314
     54 C18        -5.6410    0.2420   19.3180 C.3       1 J1T        -0.0077
     55 C19        -5.3660   -1.2690   19.3660 C.3       1 J1T        -0.0077
     56 C20        -5.5510   -1.6940   17.9110 C.3       1 J1T        -0.0314
     57 C15        -1.4870    0.5780   16.5020 C.ar      1 J1T        -0.0133
     58 C23        -1.4330    1.5430   15.5020 C.ar      1 J1T        -0.0450
     59 C26        -0.4090    2.4780   15.5500 C.ar      1 J1T         0.1059
     60 O30        -0.1270    3.5370   14.6850 O.3       1 J1T        -0.3001
     61 C29         1.3080    3.7620   14.9120 C.3       1 J1T         0.1831
     62 O28         1.4060    3.4760   16.3540 O.3       1 J1T        -0.2981
     63 C27         0.5250    2.4280   16.5790 C.ar      1 J1T         0.1083
     64 C22         0.5010    1.4770   17.5890 C.ar      1 J1T        -0.0183
     65 C21        -0.5360    0.5470   17.5300 C.ar      1 J1T         0.0755
     66 O24        -0.5910   -0.4000   18.5080 O.3       1 J1T        -0.3343
     67 C25        -0.3730    0.0060   19.8810 C.3       1 J1T         0.0553
     68 H1          3.4182   -8.0118   -1.3256 H         1 J1T         0.0837
     69 H2          2.4619   -6.6668   -2.0350 H         1 J1T         0.0837
     70 H3          3.6762   -7.5043   -3.8284 H         1 J1T         0.0613
     71 H4          5.1567   -7.7519   -2.8416 H         1 J1T         0.0613
     72 H5          5.2623   -3.8078   -2.9624 H         1 J1T         0.0613
     73 H6          6.2857   -5.0635   -2.1861 H         1 J1T         0.0613
     74 H7          3.4612   -4.1759   -1.4533 H         1 J1T         0.0837
     75 H8          4.9369   -4.2139   -0.4297 H         1 J1T         0.0837
     76 H9          4.8411   -6.4958   -0.3476 H         1 J1T         0.2035
     77 H10         2.4400   -6.9663    0.3812 H         1 J1T         0.0815
     78 H11         2.2623   -5.2039    0.0827 H         1 J1T         0.0815
     79 H12         3.7403   -4.6181    1.7727 H         1 J1T         0.0339
     80 H13         4.7023   -6.1250    1.5985 H         1 J1T         0.0339
     81 H14         2.7942   -7.3588    2.7071 H         1 J1T         0.0559
     82 H15         1.2605   -6.0901    4.2106 H         1 J1T         0.0424
     83 H16         0.9351   -5.7059    2.4863 H         1 J1T         0.0424
     84 H17         3.6999   -2.4627    5.4737 H         1 J1T         0.0565
     85 H18         3.8614   -2.2449    7.8972 H         1 J1T         0.0600
     86 H19         2.2800   -3.4607    9.4016 H         1 J1T         0.0559
     87 H20         0.5444   -4.8821    8.3120 H         1 J1T         0.0600
     88 H21         0.4005   -5.1084    5.8846 H         1 J1T         0.0565
     89 H22         4.7673   -5.6171    3.9985 H         1 J1T         0.1759
     90 H23         4.7561   -7.2171    8.3633 H         1 J1T         0.0621
     91 H24         1.7133   -7.7080    4.4691 H         1 J1T         0.0516
     92 H25         1.1593   -8.8642    6.6151 H         1 J1T         0.0602
     93 H26         2.5824   -7.5294   10.9375 H         1 J1T         0.2136
     94 H27         1.9275   -6.5698   12.2376 H         1 J1T         0.0665
     95 H28         1.0756   -4.8756   13.8035 H         1 J1T         0.0624
     96 H29        -1.4898   -6.0087    9.7465 H         1 J1T         0.0665
     97 H30        -2.3610   -4.3214   11.3120 H         1 J1T         0.0624
     98 H31        -2.5092   -2.5956   12.2277 H         1 J1T         0.0614
     99 H32        -3.3245   -0.8638   13.7708 H         1 J1T         0.0564
    100 H33         0.0510   -4.0577   15.2975 H         1 J1T         0.0614
    101 H34        -0.7597   -2.3386   16.8612 H         1 J1T         0.0564
    102 H35        -3.4265    0.1524   15.7274 H         1 J1T         0.0633
    103 H36        -3.0737   -0.1331   18.4291 H         1 J1T         0.0860
    104 H37        -3.1762   -1.8279   17.8428 H         1 J1T         0.0860
    105 H38        -4.9678   -0.5660   16.3034 H         1 J1T         0.2036
    106 H39        -6.0374    1.1477   17.3690 H         1 J1T         0.0814
    107 H40        -4.3595    1.3840   17.9654 H         1 J1T         0.0814
    108 H41        -6.7112    0.4448   19.4710 H         1 J1T         0.0319
    109 H42        -5.0548    0.7659   20.0873 H         1 J1T         0.0319
    110 H43        -6.0843   -1.7816   20.0227 H         1 J1T         0.0319
    111 H44        -4.3421   -1.4744   19.7114 H         1 J1T         0.0319
    112 H45        -5.0981   -2.6738   17.6993 H         1 J1T         0.0814
    113 H46        -6.6085   -1.7058   17.6086 H         1 J1T         0.0814
    114 H47        -2.1701    1.5641   14.7075 H         1 J1T         0.0429
    115 H48         1.5965    4.7987   14.6842 H         1 J1T         0.0967
    116 H49         1.9252    3.0709   14.3192 H         1 J1T         0.0967
    117 H50         1.2447    1.4582   18.3775 H         1 J1T         0.0421
    118 H51        -0.4508   -0.8716   20.5396 H         1 J1T         0.0570
    119 H52        -1.1317    0.7487   20.1686 H         1 J1T         0.0570
    120 H53         0.6291    0.4492   19.9776 H         1 J1T         0.0570
@<TRIPOS>BOND
     1    1    2 1  
     2    1    6 1  
     3    2    3 1  
     4    3    4 1  
     5    4    5 1  
     6    5    6 1  
     7    6    7 1  
     8    7    8 1  
     9    8    9 1  
    10    9   10 1  
    11    9   18 1  
    12   10   11 1  
    13   11   12 1  
    14   12   13 ar 
    15   12   17 ar 
    16   13   14 ar 
    17   14   15 ar 
    18   15   16 ar 
    19   16   17 ar 
    20   18   19 1  
    21   19   20 ar 
    22   19   29 ar 
    23   20   21 ar 
    24   20   22 1  
    25   21   31 ar 
    26   22   23 2  
    27   22   24 2  
    28   22   25 1  
    29   25   26 1  
    30   25   27 1  
    31   25   28 1  
    32   29   30 ar 
    33   30   31 ar 
    34   31   32 1  
    35   32   33 2  
    36   32   34 2  
    37   32   35 am 
    38   35   36 am 
    39   36   37 2  
    40   36   38 1  
    41   38   39 ar 
    42   38   41 ar 
    43   39   40 ar 
    44   40   43 ar 
    45   41   42 ar 
    46   42   43 ar 
    47   43   44 1  
    48   44   45 ar 
    49   44   47 ar 
    50   45   46 ar 
    51   46   49 ar 
    52   47   48 ar 
    53   48   49 ar 
    54   49   50 1  
    55   50   51 1  
    56   50   57 1  
    57   51   52 1  
    58   52   53 1  
    59   52   56 1  
    60   53   54 1  
    61   54   55 1  
    62   55   56 1  
    63   57   58 ar 
    64   57   65 ar 
    65   58   59 ar 
    66   59   60 1  
    67   59   63 ar 
    68   60   61 1  
    69   61   62 1  
    70   62   63 1  
    71   63   64 ar 
    72   64   65 ar 
    73   65   66 1  
    74   66   67 1  
    75    1   68 1  
    76    1   69 1  
    77    2   70 1  
    78    2   71 1  
    79    4   72 1  
    80    4   73 1  
    81    5   74 1  
    82    5   75 1  
    83    6   76 1  
    84    7   77 1  
    85    7   78 1  
    86    8   79 1  
    87    8   80 1  
    88    9   81 1  
    89   10   82 1  
    90   10   83 1  
    91   13   84 1  
    92   14   85 1  
    93   15   86 1  
    94   16   87 1  
    95   17   88 1  
    96   18   89 1  
    97   21   90 1  
    98   29   91 1  
    99   30   92 1  
   100   35   93 1  
   101   39   94 1  
   102   40   95 1  
   103   41   96 1  
   104   42   97 1  
   105   45   98 1  
   106   46   99 1  
   107   47  100 1  
   108   48  101 1  
   109   50  102 1  
   110   51  103 1  
   111   51  104 1  
   112   52  105 1  
   113   53  106 1  
   114   53  107 1  
   115   54  108 1  
   116   54  109 1  
   117   55  110 1  
   118   55  111 1  
   119   56  112 1  
   120   56  113 1  
   121   58  114 1  
   122   61  115 1  
   123   61  116 1  
   124   64  117 1  
   125   67  118 1  
   126   67  119 1  
   127   67  120 1  
@<TRIPOS>SUBSTRUCTURE
     1 J1T         1

