### 
### Created by X-TOOL on Mon Aug  2 16:16:31 2021
### 

@<TRIPOS>MOLECULE
6qgk_ligand
   77    80     1     0     0
SMALL
GAST_HUCK


@<TRIPOS>ATOM
      1 C30        -2.2850   -2.4560   16.8900 C.3       1 J1Q        -0.0652
      2 C29        -2.2880   -1.7030   18.1630 C.3       1 J1Q        -0.0541
      3 C28        -0.8790   -1.5950   18.6730 C.3       1 J1Q        -0.0328
      4 C27        -0.8870   -0.5940   19.7900 C.3       1 J1Q         0.0334
      5 N5          0.4870   -0.4560   20.4330 N.am      1 J1Q        -0.2724
      6 C23         1.0360   -1.5800   21.2440 C.3       1 J1Q         0.0334
      7 C24         0.6370   -1.5000   22.7210 C.3       1 J1Q        -0.0328
      8 C25         1.4120   -2.5890   23.5430 C.3       1 J1Q        -0.0541
      9 C26         1.0140   -2.4340   25.0120 C.3       1 J1Q        -0.0652
     10 C22         1.1840    0.6740   20.2880 C.2       1 J1Q         0.2100
     11 O2          2.2630    0.8830   20.8370 O.2       1 J1Q        -0.3850
     12 C18         0.7930    1.7520   19.3470 C.2       1 J1Q         0.0969
     13 N4          0.6350    1.5150   18.0830 N.2       1 J1Q        -0.1908
     14 C19         0.5770    3.1000   19.6250 C.2       1 J1Q        -0.0291
     15 C20         0.3120    3.6660   18.3820 C.2       1 J1Q         0.0862
     16 C21        -0.0270    5.0860   18.0890 C.3       1 J1Q         0.0007
     17 N3          0.3470    2.6620   17.4770 N.pl3     1 J1Q        -0.1513
     18 C13         0.2520    2.7520   16.0210 C.ar      1 J1Q         0.1333
     19 C14        -0.8290    3.2170   15.3100 C.ar      1 J1Q        -0.0193
     20 C15        -0.7150    3.2880   13.9730 C.ar      1 J1Q        -0.0613
     21 C16         0.4070    2.8320   13.2940 C.ar      1 J1Q        -0.0629
     22 C17         1.4900    2.3380   14.0400 C.ar      1 J1Q        -0.0456
     23 C12         1.4070    2.3460   15.3920 C.ar      1 J1Q         0.0862
     24 C11         2.5820    1.8150   16.2160 C.2       1 J1Q         0.2075
     25 O1          3.1740    2.5790   17.0140 O.2       1 J1Q        -0.3883
     26 N1          3.0040    0.5610   16.0320 N.am      1 J1Q        -0.2535
     27 C7          2.2560   -0.4270   15.2300 C.3       1 J1Q         0.0651
     28 C6          2.0670   -1.7570   15.9270 C.ar      1 J1Q        -0.0187
     29 C4          1.2850   -2.7200   15.3200 C.ar      1 J1Q        -0.0649
     30 C3          1.1050   -3.9470   15.9320 C.ar      1 J1Q        -0.0754
     31 C2          1.7380   -4.2080   17.1250 C.ar      1 J1Q        -0.0755
     32 C1          2.4880   -3.2670   17.7830 C.ar      1 J1Q        -0.0667
     33 C5          2.6720   -2.0260   17.1350 C.ar      1 J1Q        -0.0367
     34 C10         3.4950   -0.9740   17.7950 C.3       1 J1Q         0.0069
     35 C8          4.0980    0.0180   16.8380 C.3       1 J1Q         0.0942
     36 C9          5.2100   -0.6570   16.0550 C.3       1 J1Q        -0.0098
     37 N2          6.0100    0.3790   15.4040 N.4       1 J1Q         0.2203
     38 H1         -3.3142   -2.5389   16.5107 H         1 J1Q         0.0230
     39 H2         -1.8748   -3.4624   17.0602 H         1 J1Q         0.0230
     40 H3         -1.6639   -1.9268   16.1524 H         1 J1Q         0.0230
     41 H4         -2.9079   -2.2315   18.9022 H         1 J1Q         0.0263
     42 H5         -2.6970   -0.6959   17.9944 H         1 J1Q         0.0263
     43 H6         -0.2116   -1.2552   17.8673 H         1 J1Q         0.0285
     44 H7         -0.5369   -2.5720   19.0450 H         1 J1Q         0.0285
     45 H8         -1.6074   -0.9192   20.5550 H         1 J1Q         0.0522
     46 H9         -1.1932    0.3839   19.3901 H         1 J1Q         0.0522
     47 H10         2.1336   -1.5589   21.1754 H         1 J1Q         0.0522
     48 H11         0.6608   -2.5275   20.8300 H         1 J1Q         0.0522
     49 H12        -0.4452   -1.6726   22.8164 H         1 J1Q         0.0285
     50 H13         0.8852   -0.5024   23.1124 H         1 J1Q         0.0285
     51 H14         2.4963   -2.4415   23.4312 H         1 J1Q         0.0263
     52 H15         1.1396   -3.5928   23.1851 H         1 J1Q         0.0263
     53 H16         1.5425   -3.1860   25.6163 H         1 J1Q         0.0230
     54 H17        -0.0717   -2.5780   25.1149 H         1 J1Q         0.0230
     55 H18         1.2851   -1.4267   25.3610 H         1 J1Q         0.0230
     56 H19         0.6084    3.5969   20.5935 H         1 J1Q         0.0283
     57 H20         0.0256    5.6745   19.0169 H         1 J1Q         0.0438
     58 H21        -1.0451    5.1423   17.6764 H         1 J1Q         0.0438
     59 H22         0.6881    5.4903   17.3574 H         1 J1Q         0.0438
     60 H23        -1.7425    3.5163   15.8111 H         1 J1Q         0.0600
     61 H24        -1.5304    3.7178   13.4026 H         1 J1Q         0.0635
     62 H25         0.4464    2.8567   12.2110 H         1 J1Q         0.0571
     63 H26         2.3752    1.9577   13.5432 H         1 J1Q         0.0652
     64 H27         2.8048   -0.6009   14.2927 H         1 J1Q         0.0670
     65 H28         1.2639   -0.0101   15.0021 H         1 J1Q         0.0670
     66 H29         0.8133   -2.5145   14.3659 H         1 J1Q         0.0538
     67 H30         0.4699   -4.6973   15.4751 H         1 J1Q         0.0541
     68 H31         1.6403   -5.1953   17.5618 H         1 J1Q         0.0541
     69 H32         2.9201   -3.4670   18.7568 H         1 J1Q         0.0537
     70 H33         4.3115   -1.4664   18.3435 H         1 J1Q         0.0436
     71 H34         2.8551   -0.4271   18.5031 H         1 J1Q         0.0436
     72 H35         4.5457    0.8462   17.4069 H         1 J1Q         0.0634
     73 H36         4.7772   -1.3245   15.2953 H         1 J1Q         0.0838
     74 H37         5.8438   -1.2413   16.7383 H         1 J1Q         0.0838
     75 H38         6.7545   -0.0520   14.8786 H         1 J1Q         0.1995
     76 H39         6.4023    0.9897   16.1034 H         1 J1Q         0.1995
     77 H40         5.4249    0.9135   14.7811 H         1 J1Q         0.1995
@<TRIPOS>BOND
     1    1    2 1  
     2    2    3 1  
     3    3    4 1  
     4    4    5 1  
     5    5    6 1  
     6    5   10 am 
     7    6    7 1  
     8    7    8 1  
     9    8    9 1  
    10   10   11 2  
    11   10   12 1  
    12   12   13 2  
    13   12   14 1  
    14   13   17 1  
    15   14   15 2  
    16   15   16 1  
    17   15   17 1  
    18   17   18 1  
    19   18   19 ar 
    20   18   23 ar 
    21   19   20 ar 
    22   20   21 ar 
    23   21   22 ar 
    24   22   23 ar 
    25   23   24 1  
    26   24   25 2  
    27   24   26 am 
    28   26   27 1  
    29   26   35 1  
    30   27   28 1  
    31   28   29 ar 
    32   28   33 ar 
    33   29   30 ar 
    34   30   31 ar 
    35   31   32 ar 
    36   32   33 ar 
    37   33   34 1  
    38   34   35 1  
    39   35   36 1  
    40   36   37 1  
    41    1   38 1  
    42    1   39 1  
    43    1   40 1  
    44    2   41 1  
    45    2   42 1  
    46    3   43 1  
    47    3   44 1  
    48    4   45 1  
    49    4   46 1  
    50    6   47 1  
    51    6   48 1  
    52    7   49 1  
    53    7   50 1  
    54    8   51 1  
    55    8   52 1  
    56    9   53 1  
    57    9   54 1  
    58    9   55 1  
    59   14   56 1  
    60   16   57 1  
    61   16   58 1  
    62   16   59 1  
    63   19   60 1  
    64   20   61 1  
    65   21   62 1  
    66   22   63 1  
    67   27   64 1  
    68   27   65 1  
    69   29   66 1  
    70   30   67 1  
    71   31   68 1  
    72   32   69 1  
    73   34   70 1  
    74   34   71 1  
    75   35   72 1  
    76   36   73 1  
    77   36   74 1  
    78   37   75 1  
    79   37   76 1  
    80   37   77 1  
@<TRIPOS>SUBSTRUCTURE
     1 J1Q         1

