### 
### Created by X-TOOL on Mon Aug  2 16:16:31 2021
### 

@<TRIPOS>MOLECULE
6qh9_ligand
   36    37     1     0     0
SMALL
GAST_HUCK


@<TRIPOS>ATOM
      1 C10       -22.7010    1.1900  -23.7170 C.ar      1 J2N        -0.0413
      2 C15       -24.0500   -0.5100  -20.7860 C.2       1 J2N         0.2260
      3 C17       -23.6580   -1.9350  -20.3890 C.3       1 J2N         0.1429
      4 C22       -23.2120   -3.6500  -18.6080 C.3       1 J2N        -0.0284
      5 N01       -23.9560    5.7670  -24.5930 N.pl3     1 J2N        -0.2738
      6 C04       -23.2220    4.7050  -24.9590 C.cat     1 J2N         0.2271
      7 N05       -22.5560    4.7610  -26.0700 N.pl3     1 J2N        -0.2738
      8 C07       -23.2580    3.5090  -24.0970 C.ar      1 J2N         0.0101
      9 C08       -22.6730    2.3170  -24.5190 C.ar      1 J2N        -0.0704
     10 C12       -23.3240    1.2250  -22.4720 C.ar      1 J2N         0.0664
     11 N13       -23.2690   -0.0060  -21.7700 N.am      1 J2N        -0.2317
     12 O16       -24.9470    0.1120  -20.2090 O.2       1 J2N        -0.3812
     13 C19       -23.9060   -2.3250  -18.9200 C.3       1 J2N        -0.0139
     14 C25       -23.6790   -4.7440  -19.5630 C.3       1 J2N         0.0313
     15 N28       -24.1620   -4.2530  -20.8720 N.am      1 J2N        -0.2848
     16 C30       -24.2230   -2.9890  -21.3280 C.2       1 J2N         0.1989
     17 O31       -24.6380   -2.7350  -22.4570 O.2       1 J2N        -0.3934
     18 C32       -23.9060    2.4180  -22.0360 C.ar      1 J2N        -0.0413
     19 C34       -23.8790    3.5430  -22.8470 C.ar      1 J2N        -0.0704
     20 H1        -22.2348    0.2735  -24.0601 H         1 J2N         0.0502
     21 H2        -22.5662   -1.9721  -20.5173 H         1 J2N         0.0780
     22 H3        -23.4491   -3.9471  -17.5758 H         1 J2N         0.0288
     23 H4        -22.1246   -3.5208  -18.7118 H         1 J2N         0.0288
     24 H5        -24.4928    5.7438  -23.7143 H         1 J2N         0.3179
     25 H6        -23.9826    6.6054  -25.1908 H         1 J2N         0.3179
     26 H7        -21.9861    3.9571  -26.3699 H         1 J2N         0.3179
     27 H8        -22.5968    5.6094  -26.6527 H         1 J2N         0.3179
     28 H9        -22.1897    2.2720  -25.4882 H         1 J2N         0.0577
     29 H10       -22.5215   -0.6077  -22.0516 H         1 J2N         0.2258
     30 H11       -24.9874   -2.4308  -18.7485 H         1 J2N         0.0317
     31 H12       -23.5054   -1.5399  -18.2618 H         1 J2N         0.0317
     32 H13       -24.4991   -5.2948  -19.0792 H         1 J2N         0.0520
     33 H14       -22.8349   -5.4261  -19.7426 H         1 J2N         0.0520
     34 H15       -24.4875   -4.9564  -21.5039 H         1 J2N         0.1852
     35 H16       -24.3796    2.4645  -21.0620 H         1 J2N         0.0502
     36 H17       -24.3459    4.4600  -22.5060 H         1 J2N         0.0577
@<TRIPOS>BOND
     1    1    9 ar 
     2   10    1 ar 
     3    2    3 1  
     4   11    2 am 
     5    2   12 2  
     6    3   13 1  
     7    3   16 1  
     8   13    4 1  
     9    4   14 1  
    10    6    5 ar 
    11    6    7 ar 
    12    8    6 1  
    13    9    8 ar 
    14    8   19 ar 
    15   10   11 1  
    16   10   18 ar 
    17   14   15 1  
    18   15   16 am 
    19   16   17 2  
    20   18   19 ar 
    21    1   20 1  
    22    3   21 1  
    23    4   22 1  
    24    4   23 1  
    25    5   24 1  
    26    5   25 1  
    27    7   26 1  
    28    7   27 1  
    29    9   28 1  
    30   11   29 1  
    31   13   30 1  
    32   13   31 1  
    33   14   32 1  
    34   14   33 1  
    35   15   34 1  
    36   18   35 1  
    37   19   36 1  
@<TRIPOS>SUBSTRUCTURE
     1 J2N         1

