### 
### Created by X-TOOL on Mon Aug  2 16:16:31 2021
### 

@<TRIPOS>MOLECULE
6qha_ligand
   40    41     1     0     0
SMALL
GAST_HUCK


@<TRIPOS>ATOM
      1 C10       -23.6300   -2.8030  -17.1000 C.ar      1 J2Q        -0.0370
      2 C17       -23.3350    0.8760  -19.3270 C.2       1 J2Q         0.2240
      3 C21       -22.6550    1.9410  -21.4970 C.ar      1 J2Q         0.0657
      4 C22       -22.4140    1.6380  -22.8340 C.ar      1 J2Q        -0.0413
      5 C24       -22.3280    2.6480  -23.7810 C.ar      1 J2Q        -0.0703
      6 C26       -22.4660    3.9870  -23.4100 C.ar      1 J2Q         0.0101
      7 C01       -22.0850   -6.1380  -18.3230 C.3       1 J2Q        -0.0376
      8 C05       -23.2560   -5.3040  -18.6530 C.3       1 J2Q         0.0652
      9 O08       -22.7540   -4.0120  -19.0530 O.3       1 J2Q        -0.3208
     10 C09       -23.1800   -2.8680  -18.4110 C.ar      1 J2Q         0.1258
     11 C12       -23.9870   -1.5770  -16.5530 C.ar      1 J2Q        -0.0763
     12 C14       -23.8720   -0.4110  -17.2900 C.ar      1 J2Q        -0.0612
     13 C16       -23.3790   -0.4390  -18.5990 C.ar      1 J2Q         0.0762
     14 O18       -23.7840    1.8930  -18.8010 O.2       1 J2Q        -0.3795
     15 N19       -22.7790    0.8690  -20.5700 N.am      1 J2Q        -0.2352
     16 C27       -22.7180    4.2830  -22.0720 C.ar      1 J2Q        -0.0703
     17 C29       -22.8120    3.2750  -21.1240 C.ar      1 J2Q        -0.0413
     18 C31       -22.4030    5.0710  -24.4350 C.cat     1 J2Q         0.2271
     19 N32       -23.1070    6.1930  -24.1930 N.pl3     1 J2Q        -0.2738
     20 N35       -21.7600    4.9640  -25.5510 N.pl3     1 J2Q        -0.2738
     21 C37       -23.0450   -1.6970  -19.1750 C.ar      1 J2Q         0.1386
     22 O38       -22.5890   -1.8050  -20.4410 O.3       1 J2Q        -0.3312
     23 H1        -23.7027   -3.7060  -16.5046 H         1 J2Q         0.0543
     24 H2        -22.2925    0.6045  -23.1376 H         1 J2Q         0.0502
     25 H3        -22.1518    2.3950  -24.8202 H         1 J2Q         0.0577
     26 H4        -22.4228   -7.1373  -18.0112 H         1 J2Q         0.0255
     27 H5        -21.5204   -5.6695  -17.5034 H         1 J2Q         0.0255
     28 H6        -21.4386   -6.2292  -19.2083 H         1 J2Q         0.0255
     29 H7        -23.9064   -5.2003  -17.7720 H         1 J2Q         0.0606
     30 H8        -23.8245   -5.7600  -19.4769 H         1 J2Q         0.0606
     31 H9        -24.3603   -1.5329  -15.5363 H         1 J2Q         0.0508
     32 H10       -24.1671    0.5339  -16.8482 H         1 J2Q         0.0544
     33 H11       -22.4074   -0.0088  -20.8722 H         1 J2Q         0.2249
     34 H12       -22.8424    5.3159  -21.7676 H         1 J2Q         0.0577
     35 H13       -23.0085    3.5257  -20.0879 H         1 J2Q         0.0502
     36 H14       -23.0926    6.9667  -24.8728 H         1 J2Q         0.3179
     37 H15       -23.6599    6.2776  -23.3281 H         1 J2Q         0.3179
     38 H16       -21.2164    4.1127  -25.7526 H         1 J2Q         0.3179
     39 H17       -21.7912    5.7300  -26.2388 H         1 J2Q         0.3179
     40 H18       -22.4235   -2.7191  -20.6399 H         1 J2Q         0.2472
@<TRIPOS>BOND
     1    1   10 ar 
     2   11    1 ar 
     3   13    2 1  
     4    2   14 2  
     5    2   15 am 
     6    3    4 ar 
     7   15    3 1  
     8    3   17 ar 
     9    4    5 ar 
    10    5    6 ar 
    11    6   16 ar 
    12    6   18 1  
    13    8    7 1  
    14    9    8 1  
    15   10    9 1  
    16   10   21 ar 
    17   12   11 ar 
    18   12   13 ar 
    19   13   21 ar 
    20   16   17 ar 
    21   18   19 ar 
    22   18   20 ar 
    23   21   22 1  
    24    1   23 1  
    25    4   24 1  
    26    5   25 1  
    27    7   26 1  
    28    7   27 1  
    29    7   28 1  
    30    8   29 1  
    31    8   30 1  
    32   11   31 1  
    33   12   32 1  
    34   15   33 1  
    35   16   34 1  
    36   17   35 1  
    37   19   36 1  
    38   19   37 1  
    39   20   38 1  
    40   20   39 1  
    41   22   40 1  
@<TRIPOS>SUBSTRUCTURE
     1 J2Q         1

