### 
### Created by X-TOOL on Mon Aug  2 16:16:31 2021
### 

@<TRIPOS>MOLECULE
6qhb_ligand
   37    38     1     0     0
SMALL
GAST_HUCK


@<TRIPOS>ATOM
      1 C13       -23.4790   -0.4850  -19.0460 C.ar      1 J2W         0.0762
      2 C21       -22.3320    2.7030  -24.1590 C.ar      1 J2W        -0.0703
      3 C24       -22.8600    4.3080  -22.4360 C.ar      1 J2W        -0.0703
      4 C26       -22.9240    3.2870  -21.4860 C.ar      1 J2W        -0.0413
      5 C28       -22.4840    5.1370  -24.7540 C.cat     1 J2W         0.2271
      6 C01       -22.7480   -5.2960  -18.9460 C.3       1 J2W         0.0570
      7 O05       -22.4810   -4.0000  -19.4780 O.3       1 J2W        -0.3238
      8 C06       -23.0810   -2.9180  -18.8840 C.ar      1 J2W         0.1254
      9 C07       -23.7500   -2.9410  -17.6500 C.ar      1 J2W        -0.0370
     10 C09       -24.3250   -1.7700  -17.1540 C.ar      1 J2W        -0.0763
     11 C11       -24.2070   -0.5610  -17.8440 C.ar      1 J2W        -0.0612
     12 C14       -23.4520    0.8190  -19.7970 C.2       1 J2W         0.2240
     13 O15       -24.0650    1.7860  -19.3240 O.2       1 J2W        -0.3795
     14 N16       -22.8080    0.8490  -20.9830 N.am      1 J2W        -0.2352
     15 C18       -22.7140    1.9510  -21.8810 C.ar      1 J2W         0.0657
     16 C19       -22.4040    1.6750  -23.2170 C.ar      1 J2W        -0.0413
     17 C23       -22.5140    4.0300  -23.7660 C.ar      1 J2W         0.0101
     18 N29       -23.1850    6.2440  -24.4760 N.pl3     1 J2W        -0.2738
     19 N32       -21.8310    5.0560  -25.8900 N.pl3     1 J2W        -0.2738
     20 C34       -22.9310   -1.6970  -19.5850 C.ar      1 J2W         0.1386
     21 O35       -22.2530   -1.7020  -20.7630 O.3       1 J2W        -0.3312
     22 H1        -22.1341    2.4699  -25.1990 H         1 J2W         0.0577
     23 H2        -23.0804    5.3278  -22.1419 H         1 J2W         0.0577
     24 H3        -23.1344    3.5212  -20.4487 H         1 J2W         0.0502
     25 H4        -22.1977   -6.0511  -19.5265 H         1 J2W         0.0573
     26 H5        -23.8269   -5.5019  -19.0061 H         1 J2W         0.0573
     27 H6        -22.4253   -5.3346  -17.8951 H         1 J2W         0.0573
     28 H7        -23.8196   -3.8636  -17.0852 H         1 J2W         0.0543
     29 H8        -24.8719   -1.7991  -16.2185 H         1 J2W         0.0508
     30 H9        -24.6821    0.3296  -17.4487 H         1 J2W         0.0544
     31 H10       -22.3470    0.0064  -21.2614 H         1 J2W         0.2249
     32 H11       -22.2177    0.6522  -23.5241 H         1 J2W         0.0502
     33 H12       -23.1871    7.0323  -25.1389 H         1 J2W         0.3179
     34 H13       -23.7220    6.3070  -23.5993 H         1 J2W         0.3179
     35 H14       -21.2890    4.2091  -26.1132 H         1 J2W         0.3179
     36 H15       -21.8607    5.8394  -26.5581 H         1 J2W         0.3179
     37 H16       -21.3656   -2.0070  -20.6150 H         1 J2W         0.2472
@<TRIPOS>BOND
     1    1   11 ar 
     2   12    1 1  
     3    1   20 ar 
     4    2   16 ar 
     5   17    2 ar 
     6    4    3 ar 
     7    3   17 ar 
     8   15    4 ar 
     9   17    5 1  
    10    5   18 ar 
    11    5   19 ar 
    12    7    6 1  
    13    8    7 1  
    14    8    9 ar 
    15   20    8 ar 
    16   10    9 ar 
    17   11   10 ar 
    18   12   13 2  
    19   14   12 am 
    20   14   15 1  
    21   15   16 ar 
    22   20   21 1  
    23    2   22 1  
    24    3   23 1  
    25    4   24 1  
    26    6   25 1  
    27    6   26 1  
    28    6   27 1  
    29    9   28 1  
    30   10   29 1  
    31   11   30 1  
    32   14   31 1  
    33   16   32 1  
    34   18   33 1  
    35   18   34 1  
    36   19   35 1  
    37   19   36 1  
    38   21   37 1  
@<TRIPOS>SUBSTRUCTURE
     1 J2W         1

