### 
### Created by X-TOOL on Mon Aug  2 16:16:32 2021
### 

@<TRIPOS>MOLECULE
6qhc_ligand
   33    34     1     0     0
SMALL
GAST_HUCK


@<TRIPOS>ATOM
      1 C1        -22.6440    3.9950  -23.3710 C.ar      1 MOL         0.0101
      2 C2        -23.1410    4.1930  -22.0860 C.ar      1 MOL        -0.0703
      3 C3        -23.2140    3.1500  -21.1830 C.ar      1 MOL        -0.0413
      4 C4        -22.8350    1.8650  -21.5600 C.ar      1 MOL         0.0657
      5 C5        -22.3800    1.6450  -22.8650 C.ar      1 MOL        -0.0413
      6 C6        -22.2970    2.6990  -23.7620 C.ar      1 MOL        -0.0703
      7 C7        -22.5830    5.1340  -24.3340 C.cat     1 MOL         0.2271
      8 N1        -23.1510    6.2670  -24.0600 N.pl3     1 MOL        -0.2738
      9 N2        -21.9740    4.9560  -25.5240 N.pl3     1 MOL        -0.2738
     10 N3        -22.9400    0.8000  -20.6320 N.am      1 MOL        -0.2350
     11 C8        -23.4200    0.8370  -19.3630 C.2       1 MOL         0.2268
     12 O8        -23.8640    1.8570  -18.8370 O.2       1 MOL        -0.3792
     13 C9        -23.4350   -0.4690  -18.6250 C.ar      1 MOL         0.0843
     14 C10       -23.9290   -0.4330  -17.3150 C.ar      1 MOL        -0.0498
     15 C11       -24.0200   -1.5910  -16.5560 C.ar      1 MOL        -0.0671
     16 C12       -23.6120   -2.8010  -17.0770 C.ar      1 MOL        -0.0661
     17 C13       -23.1270   -2.8750  -18.3720 C.ar      1 MOL        -0.0270
     18 C14       -23.0310   -1.7210  -19.1510 C.ar      1 MOL         0.1097
     19 O14       -22.5490   -1.8540  -20.4140 O.3       1 MOL        -0.3276
     20 H1        -23.4758    5.1804  -21.7893 H         1 MOL         0.0577
     21 H2        -23.5685    3.3335  -20.1752 H         1 MOL         0.0502
     22 H3        -22.0915    0.6473  -23.1756 H         1 MOL         0.0502
     23 H4        -21.9599    2.5161  -24.7759 H         1 MOL         0.0577
     24 H5        -23.1010    7.0444  -24.7338 H         1 MOL         0.3179
     25 H6        -23.6522    6.3895  -23.1686 H         1 MOL         0.3179
     26 H7        -21.5227    4.0562  -25.7421 H         1 MOL         0.3179
     27 H8        -21.9602    5.7199  -26.2148 H         1 MOL         0.3179
     28 H9        -22.6201   -0.0917  -20.9523 H         1 MOL         0.2249
     29 H10       -24.2445    0.5122  -16.8883 H         1 MOL         0.0640
     30 H11       -24.4142   -1.5443  -15.5473 H         1 MOL         0.0536
     31 H12       -23.6712   -3.6975  -16.4705 H         1 MOL         0.0625
     32 H13       -22.8213   -3.8310  -18.7814 H         1 MOL         0.0555
     33 H14       -21.6682   -2.2082  -20.3799 H         1 MOL         0.2509
@<TRIPOS>BOND
     1    1    2 ar 
     2    1    6 ar 
     3    1    7 1  
     4    2    3 ar 
     5    3    4 ar 
     6    4    5 ar 
     7    4   10 1  
     8    5    6 ar 
     9    7    8 ar 
    10    7    9 ar 
    11   10   11 am 
    12   11   12 2  
    13   11   13 1  
    14   13   14 ar 
    15   13   18 ar 
    16   14   15 ar 
    17   15   16 ar 
    18   16   17 ar 
    19   17   18 ar 
    20   18   19 1  
    21    2   20 1  
    22    3   21 1  
    23    5   22 1  
    24    6   23 1  
    25    8   24 1  
    26    8   25 1  
    27    9   26 1  
    28    9   27 1  
    29   10   28 1  
    30   14   29 1  
    31   15   30 1  
    32   16   31 1  
    33   17   32 1  
    34   19   33 1  
@<TRIPOS>SUBSTRUCTURE
     1 MOL         1

