### 
### Created by X-TOOL on Mon Aug  2 16:10:20 2021
### 

@<TRIPOS>MOLECULE
6qho_ligand
   38    40     1     0     0
SMALL
GAST_HUCK


@<TRIPOS>ATOM
      1 C1         85.1000   76.4430    4.8140 C.ar      1 J3H         0.1619
      2 C2         85.2840   75.1580    5.5010 C.ar      1 J3H         0.0795
      3 C3         84.6660   73.9830    4.8330 C.ar      1 J3H         0.1272
      4 N          83.9980   74.1810    3.6720 N.ar      1 J3H        -0.2656
      5 C          83.8780   75.4000    3.1160 C.ar      1 J3H         0.0563
      6 O          85.0070   82.8200    5.3380 O.2       1 J3H        -0.3969
      7 C10        84.6050   81.8260    5.9160 C.2       1 J3H         0.1783
      8 C11        83.1270   81.6330    6.1350 C.3       1 J3H         0.0346
      9 C12        82.6220   82.8890    6.8120 C.3       1 J3H        -0.0482
     10 C4         86.0480   75.3300    6.7050 C.2       1 J3H         0.0301
     11 C5         85.9450   78.7740    5.5180 C.3       1 J3H         0.1008
     12 C6         87.4200   79.0950    5.7320 C.3       1 J3H        -0.0179
     13 C7         87.6380   80.6020    5.7220 C.3       1 J3H        -0.0297
     14 C8         86.7840   81.2520    6.7990 C.3       1 J3H         0.0341
     15 C9         85.0910   79.4990    6.5580 C.3       1 J3H         0.0650
     16 N1         84.4070   76.5120    3.6540 N.ar      1 J3H        -0.2682
     17 N2         85.7380   77.3040    5.6100 N.pl3     1 J3H        -0.1791
     18 N3         86.3080   76.6690    6.7400 N.2       1 J3H        -0.2005
     19 N4         84.7720   72.7420    5.3670 N.pl3     1 J3H        -0.3122
     20 N5         85.4340   80.9050    6.3980 N.am      1 J3H        -0.2703
     21 H1         83.3267   75.4899    2.1870 H         1 J3H         0.1028
     22 H2         82.9497   80.7581    6.7777 H         1 J3H         0.0500
     23 H3         82.6161   81.4898    5.1714 H         1 J3H         0.0500
     24 H4         81.5412   82.7977    6.9948 H         1 J3H         0.0254
     25 H5         82.8121   83.7569    6.1635 H         1 J3H         0.0254
     26 H6         83.1456   83.0252    7.7697 H         1 J3H         0.0254
     27 H7         86.3496   74.5688    7.4230 H         1 J3H         0.0736
     28 H8         85.6468   79.1141    4.5153 H         1 J3H         0.0679
     29 H9         88.0120   78.6371    4.9259 H         1 J3H         0.0296
     30 H10        87.7434   78.6877    6.7013 H         1 J3H         0.0296
     31 H11        87.3553   81.0056    4.7385 H         1 J3H         0.0286
     32 H12        88.6987   80.8191    5.9163 H         1 J3H         0.0286
     33 H13        86.9249   82.3429    6.8106 H         1 J3H         0.0522
     34 H14        87.0194   80.8412    7.7919 H         1 J3H         0.0522
     35 H15        85.3368   79.1522    7.5726 H         1 J3H         0.0553
     36 H16        84.0206   79.3358    6.3639 H         1 J3H         0.0553
     37 H17        84.3379   71.9380    4.8916 H         1 J3H         0.1845
     38 H18        85.2867   72.6028    6.2483 H         1 J3H         0.1845
@<TRIPOS>BOND
     1    1    2 ar 
     2    1   16 ar 
     3   17    1 1  
     4    2    3 ar 
     5    2   10 1  
     6    3    4 ar 
     7    3   19 1  
     8    5    4 ar 
     9   16    5 ar 
    10    7    6 2  
    11    7    8 1  
    12   20    7 am 
    13    8    9 1  
    14   10   18 2  
    15   12   11 1  
    16   11   15 1  
    17   11   17 1  
    18   13   12 1  
    19   14   13 1  
    20   14   20 1  
    21   15   20 1  
    22   17   18 1  
    23    5   21 1  
    24    8   22 1  
    25    8   23 1  
    26    9   24 1  
    27    9   25 1  
    28    9   26 1  
    29   10   27 1  
    30   11   28 1  
    31   12   29 1  
    32   12   30 1  
    33   13   31 1  
    34   13   32 1  
    35   14   33 1  
    36   14   34 1  
    37   15   35 1  
    38   15   36 1  
    39   19   37 1  
    40   19   38 1  
@<TRIPOS>SUBSTRUCTURE
     1 J3H         1

