### 
### Created by X-TOOL on Mon Aug  2 16:10:20 2021
### 

@<TRIPOS>MOLECULE
6qhr_ligand
   51    55     1     0     0
SMALL
GAST_HUCK


@<TRIPOS>ATOM
      1 C11       -24.6480  -14.1830    6.0270 C.2       1 J3N         0.1783
      2 C13       -22.5890  -15.3950    6.5780 C.3       1 J3N        -0.0482
      3 C16       -28.4870   -5.2460    9.1390 C.ar      1 J3N         0.1358
      4 C17       -26.9390   -6.9080    8.6150 C.ar      1 J3N         0.0030
      5 C18       -29.9030   -4.1850    7.5500 C.2       1 J3N        -0.0557
      6 C19       -30.0910   -3.7060    8.8420 C.2       1 J3N         0.0273
      7 N         -24.2000   -6.5500    3.4890 N.ar      1 J3N        -0.2656
      8 C         -23.9170   -7.7840    3.0450 C.ar      1 J3N         0.0565
      9 O         -24.9250  -15.1340    5.3160 O.2       1 J3N        -0.3969
     10 C1        -25.2710   -8.8410    4.6410 C.ar      1 J3N         0.1634
     11 C10       -25.3060  -11.8500    6.5530 C.3       1 J3N         0.0652
     12 C12       -23.2320  -14.0200    6.5230 C.3       1 J3N         0.0346
     13 C14       -28.2600   -5.9970    6.7930 C.ar      1 J3N        -0.0478
     14 C15       -28.8810   -5.1690    7.7240 C.ar      1 J3N        -0.0004
     15 C2        -25.6390   -7.5240    5.1930 C.ar      1 J3N         0.0868
     16 C3        -25.0290   -6.3410    4.5340 C.ar      1 J3N         0.1274
     17 C4        -26.5750   -7.8040    6.3250 C.2       1 J3N         0.0718
     18 C5        -27.2700   -6.8660    7.2560 C.ar      1 J3N         0.0037
     19 C6        -25.9790  -11.2280    5.3320 C.3       1 J3N         0.1012
     20 C7        -27.4520  -11.6300    5.2820 C.3       1 J3N        -0.0177
     21 C8        -27.6530  -13.1360    5.4130 C.3       1 J3N        -0.0296
     22 C9        -26.9370  -13.6580    6.6480 C.3       1 J3N         0.0341
     23 N1        -24.4230   -8.9020    3.5900 N.ar      1 J3N        -0.2676
     24 N2        -25.9140   -9.7440    5.3810 N.pl3     1 J3N        -0.1789
     25 N3        -26.7020   -9.1530    6.3850 N.2       1 J3N        -0.1946
     26 N4        -25.2890   -5.0820    4.9410 N.pl3     1 J3N        -0.3125
     27 N5        -25.5600  -13.2800    6.3960 N.am      1 J3N        -0.2703
     28 N6        -27.5220   -6.1150    9.5290 N.ar      1 J3N        -0.2850
     29 N7        -29.2670   -4.3270    9.7470 N.pl3     1 J3N        -0.2652
     30 H1        -21.5537  -15.3015    6.9376 H         1 J3N         0.0254
     31 H2        -22.5889  -15.8403    5.5722 H         1 J3N         0.0254
     32 H3        -23.1587  -16.0390    7.2641 H         1 J3N         0.0254
     33 H4        -26.1808   -7.6095    8.9437 H         1 J3N         0.0754
     34 H5        -30.4088   -3.8849    6.6334 H         1 J3N         0.0305
     35 H6        -30.8078   -2.9294    9.1048 H         1 J3N         0.0964
     36 H7        -23.2439   -7.8838    2.2012 H         1 J3N         0.1030
     37 H8        -25.7543  -11.4717    7.4835 H         1 J3N         0.0553
     38 H9        -24.2260  -11.6412    6.5549 H         1 J3N         0.0553
     39 H10       -23.2382  -13.5711    7.5272 H         1 J3N         0.0500
     40 H11       -22.6684  -13.3723    5.8353 H         1 J3N         0.0500
     41 H12       -28.5355   -5.9681    5.7450 H         1 J3N         0.0669
     42 H13       -25.4695  -11.5847    4.4248 H         1 J3N         0.0681
     43 H14       -27.8749  -11.3003    4.3216 H         1 J3N         0.0296
     44 H15       -27.9818  -11.1307    6.1067 H         1 J3N         0.0296
     45 H16       -27.2478  -13.6352    4.5205 H         1 J3N         0.0286
     46 H17       -28.7281  -13.3526    5.4981 H         1 J3N         0.0286
     47 H18       -27.0398  -14.7497    6.7354 H         1 J3N         0.0522
     48 H19       -27.3197  -13.1793    7.5614 H         1 J3N         0.0522
     49 H20       -25.9209   -4.9185    5.7378 H         1 J3N         0.1842
     50 H21       -24.8557   -4.2838    4.4551 H         1 J3N         0.1842
     51 H22       -29.2464   -4.1195   10.7557 H         1 J3N         0.2309
@<TRIPOS>BOND
     1    1    9 2  
     2    1   12 1  
     3   27    1 am 
     4   12    2 1  
     5   14    3 ar 
     6   28    3 ar 
     7    3   29 1  
     8   18    4 ar 
     9    4   28 ar 
    10    5    6 2  
    11   14    5 1  
    12    6   29 1  
    13    8    7 ar 
    14   16    7 ar 
    15   23    8 ar 
    16   10   15 ar 
    17   10   23 ar 
    18   24   10 1  
    19   19   11 1  
    20   11   27 1  
    21   13   14 ar 
    22   18   13 ar 
    23   15   16 ar 
    24   15   17 1  
    25   16   26 1  
    26   17   18 1  
    27   17   25 2  
    28   19   20 1  
    29   19   24 1  
    30   20   21 1  
    31   21   22 1  
    32   22   27 1  
    33   24   25 1  
    34    2   30 1  
    35    2   31 1  
    36    2   32 1  
    37    4   33 1  
    38    5   34 1  
    39    6   35 1  
    40    8   36 1  
    41   11   37 1  
    42   11   38 1  
    43   12   39 1  
    44   12   40 1  
    45   13   41 1  
    46   19   42 1  
    47   20   43 1  
    48   20   44 1  
    49   21   45 1  
    50   21   46 1  
    51   22   47 1  
    52   22   48 1  
    53   26   49 1  
    54   26   50 1  
    55   29   51 1  
@<TRIPOS>SUBSTRUCTURE
     1 J3N         1

