### 
### Created by X-TOOL on Mon Aug  2 16:16:32 2021
### 

@<TRIPOS>MOLECULE
6qi4_ligand
   39    41     1     0     0
SMALL
GAST_HUCK


@<TRIPOS>ATOM
      1 C1        -10.1070  -20.8040  -14.0590 C.ar      1 FKW        -0.0774
      2 N1        -14.0130  -19.5220  -14.0000 N.pl3     1 FKW        -0.2852
      3 C2        -10.6790  -20.1380  -12.9800 C.ar      1 FKW        -0.0725
      4 N2        -11.0370  -16.5870  -10.2250 N.am      1 FKW        -0.0028
      5 C3        -12.0040  -19.7480  -13.0290 C.ar      1 FKW        -0.0153
      6 N3        -12.1490  -15.9120   -9.7680 N.2       1 FKW         0.1033
      7 C4        -12.8850  -19.0350  -12.1350 C.2       1 FKW        -0.0178
      8 N4        -15.3430  -12.0220   -5.8740 N.2       1 FKW        -0.1724
      9 C5        -14.0940  -18.9350  -12.7720 C.2       1 FKW         0.0249
     10 C6        -12.7680  -20.0250  -14.1870 C.ar      1 FKW         0.0633
     11 C7        -12.1870  -20.7070  -15.2630 C.ar      1 FKW        -0.0424
     12 C8        -10.8590  -21.0920  -15.1850 C.ar      1 FKW        -0.0750
     13 C9        -12.5130  -18.4470  -10.8070 C.3       1 FKW         0.0981
     14 C10       -11.1350  -17.8250  -10.7350 C.2       1 FKW         0.3629
     15 C11       -12.1270  -15.7620   -8.5010 C.2       1 FKW         0.2391
     16 C12       -13.1560  -15.0500   -7.7590 C.ar      1 FKW         0.1273
     17 C13       -12.7640  -14.5180   -6.5380 C.ar      1 FKW         0.0241
     18 C14       -13.5300  -13.5890   -5.8920 C.ar      1 FKW         0.0324
     19 C15       -14.7250  -13.1930   -6.4410 C.ar      1 FKW         0.1778
     20 C16       -15.2280  -13.7990   -7.6140 C.ar      1 FKW         0.1834
     21 C17       -14.4240  -14.7260   -8.2520 C.ar      1 FKW         0.0534
     22 O1        -10.1350  -18.4350  -11.0900 O.2       1 FKW        -0.3020
     23 O2        -16.4450  -13.4730   -8.1330 O.3       1 FKW        -0.3104
     24 O3        -16.5610  -11.9870   -5.7720 O.2       1 FKW        -0.4689
     25 O4        -14.6100  -11.1070   -5.5440 O.2       1 FKW        -0.4689
     26 H1         -9.0649  -21.0996  -14.0178 H         1 FKW         0.0515
     27 H2        -14.7822  -19.5753  -14.6830 H         1 FKW         0.2235
     28 H3        -10.0844  -19.9245  -12.0991 H         1 FKW         0.0555
     29 H4        -10.1408  -16.1462  -10.1756 H         1 FKW         0.4342
     30 H5        -14.9832  -18.4596  -12.3606 H         1 FKW         0.0843
     31 H6        -12.7709  -20.9314  -16.1483 H         1 FKW         0.0550
     32 H7        -10.4043  -21.6236  -16.0131 H         1 FKW         0.0542
     33 H8        -12.5632  -19.2483  -10.0551 H         1 FKW         0.0637
     34 H9        -13.2500  -17.6679  -10.5624 H         1 FKW         0.0637
     35 H10       -11.2936  -16.1897   -7.9456 H         1 FKW         0.2011
     36 H11       -11.8333  -14.8456   -6.0890 H         1 FKW         0.1048
     37 H12       -13.1962  -13.1667   -4.9511 H         1 FKW         0.0846
     38 H13       -14.7839  -15.2111   -9.1521 H         1 FKW         0.0896
     39 H14       -16.8631  -12.8272   -7.5756 H         1 FKW         0.2551
@<TRIPOS>BOND
     1    3    1 ar 
     2    1   12 ar 
     3    9    2 1  
     4    2   10 1  
     5    5    3 ar 
     6    6    4 1  
     7    4   14 am 
     8    7    5 1  
     9    5   10 ar 
    10   15    6 2  
    11    7    9 2  
    12   13    7 1  
    13   19    8 1  
    14    8   24 2  
    15    8   25 2  
    16   10   11 ar 
    17   11   12 ar 
    18   14   13 1  
    19   14   22 2  
    20   16   15 1  
    21   17   16 ar 
    22   16   21 ar 
    23   18   17 ar 
    24   18   19 ar 
    25   19   20 ar 
    26   20   21 ar 
    27   20   23 1  
    28    1   26 1  
    29    2   27 1  
    30    3   28 1  
    31    4   29 1  
    32    9   30 1  
    33   11   31 1  
    34   12   32 1  
    35   13   33 1  
    36   13   34 1  
    37   15   35 1  
    38   17   36 1  
    39   18   37 1  
    40   21   38 1  
    41   23   39 1  
@<TRIPOS>SUBSTRUCTURE
     1 FKW         1

