### 
### Created by X-TOOL on Mon Aug  2 16:16:32 2021
### 

@<TRIPOS>MOLECULE
6qi7_ligand
   49    48     1     0     0
SMALL
GAST_HUCK


@<TRIPOS>ATOM
      1 C1         -1.2960   -1.3500  -17.1620 C.2       1 PLM         0.0348
      2 O1         -1.8000   -0.4060  -16.5290 O.co2     1 PLM        -0.5690
      3 O2         -0.1660   -1.8100  -16.9170 O.co2     1 PLM        -0.5690
      4 C2         -2.0990   -1.9790  -18.2880 C.3       1 PLM         0.0002
      5 C3         -3.5760   -1.7680  -18.2140 C.3       1 PLM        -0.0414
      6 C4         -4.3100   -2.9850  -17.6930 C.3       1 PLM        -0.0516
      7 C5         -4.0140   -4.2620  -18.4400 C.3       1 PLM        -0.0530
      8 C6         -4.1980   -5.5020  -17.6110 C.3       1 PLM        -0.0531
      9 C7         -4.9900   -6.5740  -18.2990 C.3       1 PLM        -0.0531
     10 C8         -6.2910   -6.8850  -17.6370 C.3       1 PLM        -0.0531
     11 C9         -7.3930   -7.1690  -18.5930 C.3       1 PLM        -0.0531
     12 CA         -8.0210   -8.5010  -18.4150 C.3       1 PLM        -0.0531
     13 CB         -9.5160   -8.4770  -18.4680 C.3       1 PLM        -0.0531
     14 CC        -10.0880   -9.7300  -19.0160 C.3       1 PLM        -0.0531
     15 CD        -11.5470   -9.6480  -19.2420 C.3       1 PLM        -0.0531
     16 CE        -12.2380  -10.9620  -19.1430 C.3       1 PLM        -0.0533
     17 CF        -12.5840  -11.5320  -20.4610 C.3       1 PLM        -0.0559
     18 CG        -13.5520  -12.6660  -20.3260 C.3       1 PLM        -0.0653
     19 H1         -1.9096   -3.0625  -18.2764 H         1 PLM         0.0430
     20 H2         -1.7423   -1.5545  -19.2380 H         1 PLM         0.0430
     21 H3         -3.9500   -1.5352  -19.2219 H         1 PLM         0.0283
     22 H4         -3.7781   -0.9202  -17.5430 H         1 PLM         0.0283
     23 H5         -5.3904   -2.7898  -17.7611 H         1 PLM         0.0266
     24 H6         -4.0293   -3.1305  -16.6394 H         1 PLM         0.0266
     25 H7         -2.9708   -4.2277  -18.7871 H         1 PLM         0.0265
     26 H8         -4.6874   -4.3211  -19.3077 H         1 PLM         0.0265
     27 H9         -4.7203   -5.2254  -16.6833 H         1 PLM         0.0265
     28 H10        -3.2050   -5.9068  -17.3661 H         1 PLM         0.0265
     29 H11        -4.3844   -7.4920  -18.3205 H         1 PLM         0.0265
     30 H12        -5.1953   -6.2459  -19.3287 H         1 PLM         0.0265
     31 H13        -6.5811   -6.0230  -17.0184 H         1 PLM         0.0265
     32 H14        -6.1521   -7.7671  -16.9947 H         1 PLM         0.0265
     33 H15        -6.9879   -7.1118  -19.6141 H         1 PLM         0.0265
     34 H16        -8.1696   -6.4009  -18.4631 H         1 PLM         0.0265
     35 H17        -7.7153   -8.9004  -17.4367 H         1 PLM         0.0265
     36 H18        -7.6566   -9.1653  -19.2124 H         1 PLM         0.0265
     37 H19        -9.8324   -7.6376  -19.1046 H         1 PLM         0.0265
     38 H20        -9.9022   -8.3300  -17.4486 H         1 PLM         0.0265
     39 H21        -9.8885  -10.5463  -18.3062 H         1 PLM         0.0265
     40 H22        -9.5965   -9.9497  -19.9752 H         1 PLM         0.0265
     41 H23       -11.7210   -9.2382  -20.2478 H         1 PLM         0.0265
     42 H24       -11.9782   -8.9705  -18.4903 H         1 PLM         0.0265
     43 H25       -13.1641  -10.8285  -18.5647 H         1 PLM         0.0265
     44 H26       -11.5766  -11.6674  -18.6186 H         1 PLM         0.0265
     45 H27       -11.6668  -11.8995  -20.9444 H         1 PLM         0.0263
     46 H28       -13.0371  -10.7463  -21.0834 H         1 PLM         0.0263
     47 H29       -13.7883  -13.0669  -21.3227 H         1 PLM         0.0230
     48 H30       -14.4746  -12.3056  -19.8476 H         1 PLM         0.0230
     49 H31       -13.1043  -13.4587  -19.7086 H         1 PLM         0.0230
@<TRIPOS>BOND
     1    1    2 ar 
     2    1    3 ar 
     3    1    4 1  
     4    4    5 1  
     5    5    6 1  
     6    6    7 1  
     7    7    8 1  
     8    8    9 1  
     9    9   10 1  
    10   10   11 1  
    11   11   12 1  
    12   12   13 1  
    13   13   14 1  
    14   14   15 1  
    15   15   16 1  
    16   16   17 1  
    17   17   18 1  
    18    4   19 1  
    19    4   20 1  
    20    5   21 1  
    21    5   22 1  
    22    6   23 1  
    23    6   24 1  
    24    7   25 1  
    25    7   26 1  
    26    8   27 1  
    27    8   28 1  
    28    9   29 1  
    29    9   30 1  
    30   10   31 1  
    31   10   32 1  
    32   11   33 1  
    33   11   34 1  
    34   12   35 1  
    35   12   36 1  
    36   13   37 1  
    37   13   38 1  
    38   14   39 1  
    39   14   40 1  
    40   15   41 1  
    41   15   42 1  
    42   16   43 1  
    43   16   44 1  
    44   17   45 1  
    45   17   46 1  
    46   18   47 1  
    47   18   48 1  
    48   18   49 1  
@<TRIPOS>SUBSTRUCTURE
     1 PLM         1

