### 
### Created by X-TOOL on Mon Aug  2 16:16:32 2021
### 

@<TRIPOS>MOLECULE
6ql2_ligand
   26    27     1     0     0
SMALL
GAST_HUCK


@<TRIPOS>ATOM
      1 N1         15.8630    1.2300   16.1660 N.am      1 EZL        -0.2548
      2 C2         17.8220    5.2070   15.2350 C.ar      1 EZL         0.0296
      3 C3         16.7730    5.9850   14.8460 C.ar      1 EZL         0.0510
      4 C4         16.9520    7.2080   14.1530 C.ar      1 EZL        -0.0189
      5 C5         18.3080    7.5350   13.8960 C.ar      1 EZL         0.0844
      6 C8         17.5820    9.5560   12.7200 C.3       1 EZL         0.0670
      7 O1         13.9930    2.8460   16.6010 O.2       1 EZL        -0.1431
      8 O2         15.8440    2.7140   18.2540 O.2       1 EZL        -0.1431
      9 S1         15.3920    2.6120   16.8670 S.o2      1 EZL         0.1041
     10 C1         16.1530    3.9700   16.0050 C.2       1 EZL         0.2500
     11 N2         17.4890    4.0280   15.9090 N.2       1 EZL        -0.2771
     12 S2         15.3260    5.2350   15.3330 S.3       1 EZL         0.0259
     13 C6         19.3720    6.7180   14.2690 C.ar      1 EZL        -0.0391
     14 C7         19.1830    5.5580   14.9720 C.ar      1 EZL        -0.0596
     15 O3         18.6280    8.7010   13.1880 O.3       1 EZL        -0.3212
     16 C9         18.3040   10.6530   11.9110 C.3       1 EZL        -0.0372
     17 H1         15.6155    1.0418   15.2156 H         1 EZL         0.1640
     18 H2         16.4013    0.5649   16.6836 H         1 EZL         0.1640
     19 H3         16.1252    7.8383   13.8462 H         1 EZL         0.0487
     20 H4         17.0331    9.9958   13.5657 H         1 EZL         0.0610
     21 H5         16.8829    8.9985   12.0793 H         1 EZL         0.0610
     22 H6         20.3797    7.0087   13.9949 H         1 EZL         0.0502
     23 H7         20.0119    4.9453   15.3075 H         1 EZL         0.0565
     24 H8         17.5633   11.3609   11.5108 H         1 EZL         0.0255
     25 H9         18.8567   10.1916   11.0794 H         1 EZL         0.0255
     26 H10        19.0069   11.1889   12.5658 H         1 EZL         0.0255
@<TRIPOS>BOND
     1    9    1 am 
     2    2    3 ar 
     3   11    2 1  
     4    2   14 ar 
     5    3    4 ar 
     6    3   12 1  
     7    4    5 ar 
     8    5   13 ar 
     9    5   15 1  
    10   15    6 1  
    11    6   16 1  
    12    9    7 2  
    13    9    8 2  
    14   10    9 1  
    15   10   11 2  
    16   10   12 1  
    17   13   14 ar 
    18    1   17 1  
    19    1   18 1  
    20    4   19 1  
    21    6   20 1  
    22    6   21 1  
    23   13   22 1  
    24   14   23 1  
    25   16   24 1  
    26   16   25 1  
    27   16   26 1  
@<TRIPOS>SUBSTRUCTURE
     1 EZL         1

