### 
### Created by X-TOOL on Mon Aug  2 16:11:29 2021
### 

@<TRIPOS>MOLECULE
6ql3_ligand
   51    52     1     0     0
SMALL
GAST_HUCK


@<TRIPOS>ATOM
      1 F20        15.0190    5.3210   15.6930 F         1 V14        -0.1949
      2 C5         15.6420    4.4870   14.8020 C.ar      1 V14         0.1707
      3 C4         15.9900    3.1780   15.1970 C.ar      1 V14         0.1616
      4 S7         15.3450    2.6060   16.7830 S.o2      1 V14         0.0636
      5 O9         13.9460    3.0250   16.7120 O.2       1 V14        -0.1519
      6 N10        15.4770    0.9820   16.6760 N.am      1 V14        -0.2621
      7 O8         16.1920    3.1450   17.8030 O.2       1 V14        -0.1519
      8 C3         16.5900    2.3800   14.2280 C.ar      1 V14         0.1773
      9 F12        16.9500    1.1150   14.4590 F         1 V14        -0.1943
     10 C2         16.8040    2.8470   12.9930 C.ar      1 V14         0.1761
     11 F13        17.3390    1.9640   12.1210 F         1 V14        -0.1890
     12 C6         15.8540    4.9830   13.5170 C.ar      1 V14         0.0935
     13 C1         16.4870    4.1350   12.5720 C.ar      1 V14         0.1354
     14 S11        16.7860    4.4250   10.8540 S.o2      1 V14        -0.0053
     15 O16        16.4300    5.8900   10.6270 O.2       1 V14        -0.1719
     16 O17        15.8440    3.4620   10.0460 O.2       1 V14        -0.1719
     17 C15        18.4200    3.9260   10.4650 C.3       1 V14         0.0913
     18 C18        19.6250    4.3330   11.2430 C.3       1 V14         0.0637
     19 O21        19.3570    5.5720   11.7330 O.3       1 V14        -0.3934
     20 N19        15.4080    6.3260   13.2180 N.pl3     1 V14        -0.3213
     21 C14        15.4650    7.5080   14.1000 C.3       1 V14         0.0338
     22 C28        16.9660    7.6060   14.6380 C.3       1 V14        -0.0309
     23 C27        17.9260    8.3350   13.7530 C.3       1 V14        -0.0510
     24 C26        18.0430    9.8620   13.8760 C.3       1 V14        -0.0530
     25 C25        16.8240   10.7710   13.7560 C.3       1 V14        -0.0531
     26 C24        15.7630   10.6390   14.8520 C.3       1 V14        -0.0530
     27 C23        14.4720    9.9770   14.2870 C.3       1 V14        -0.0510
     28 C22        14.7980    8.6920   13.3920 C.3       1 V14        -0.0309
     29 H1         15.1831    0.4052   17.4382 H         1 V14         0.1633
     30 H2         15.8517    0.5643   15.8483 H         1 V14         0.1633
     31 H3         18.5996    4.2705    9.4359 H         1 V14         0.0524
     32 H4         18.4088    2.8263   10.4869 H         1 V14         0.0524
     33 H5         20.5089    4.3642   10.5891 H         1 V14         0.0573
     34 H6         19.8035    3.6270   12.0674 H         1 V14         0.0573
     35 H7         20.0996    5.8782   12.2401 H         1 V14         0.2095
     36 H8         15.0043    6.4746   12.2821 H         1 V14         0.1735
     37 H9         14.8421    7.3087   14.9845 H         1 V14         0.0545
     38 H10        17.3435    6.5819   14.7748 H         1 V14         0.0287
     39 H11        16.9438    8.1215   15.6095 H         1 V14         0.0287
     40 H12        17.6358    8.1170   12.7146 H         1 V14         0.0266
     41 H13        18.9250    7.9187   13.9497 H         1 V14         0.0266
     42 H14        18.7463   10.1826   13.0933 H         1 V14         0.0265
     43 H15        18.4805   10.0602   14.8656 H         1 V14         0.0265
     44 H16        16.3386   10.5538   12.7931 H         1 V14         0.0265
     45 H17        17.1812   11.8114   13.7602 H         1 V14         0.0265
     46 H18        15.5169   11.6387   15.2394 H         1 V14         0.0265
     47 H19        16.1609   10.0173   15.6676 H         1 V14         0.0265
     48 H20        13.9369   10.7132   13.6692 H         1 V14         0.0266
     49 H21        13.8330    9.6706   15.1283 H         1 V14         0.0266
     50 H22        13.8491    8.3336   12.9663 H         1 V14         0.0287
     51 H23        15.4663    9.0133   12.5795 H         1 V14         0.0287
@<TRIPOS>BOND
     1    1    2 1  
     2    2    3 ar 
     3    2   12 ar 
     4    3    4 1  
     5    3    8 ar 
     6    4    5 2  
     7    4    6 am 
     8    4    7 2  
     9    8    9 1  
    10    8   10 ar 
    11   10   11 1  
    12   10   13 ar 
    13   12   13 ar 
    14   12   20 1  
    15   13   14 1  
    16   14   15 2  
    17   14   16 2  
    18   14   17 1  
    19   17   18 1  
    20   18   19 1  
    21   20   21 1  
    22   21   22 1  
    23   21   28 1  
    24   22   23 1  
    25   23   24 1  
    26   24   25 1  
    27   25   26 1  
    28   26   27 1  
    29   27   28 1  
    30    6   29 1  
    31    6   30 1  
    32   17   31 1  
    33   17   32 1  
    34   18   33 1  
    35   18   34 1  
    36   19   35 1  
    37   20   36 1  
    38   21   37 1  
    39   22   38 1  
    40   22   39 1  
    41   23   40 1  
    42   23   41 1  
    43   24   42 1  
    44   24   43 1  
    45   25   44 1  
    46   25   45 1  
    47   26   46 1  
    48   26   47 1  
    49   27   48 1  
    50   27   49 1  
    51   28   50 1  
    52   28   51 1  
@<TRIPOS>SUBSTRUCTURE
     1 V14         1

