### 
### Created by X-TOOL on Mon Aug  2 16:16:32 2021
### 

@<TRIPOS>MOLECULE
6qln_ligand
   52    55     1     0     0
SMALL
GAST_HUCK


@<TRIPOS>ATOM
      1 C20       -12.9360    8.4810    0.1660 C.ar      1 J5Q        -0.0216
      2 C21       -12.9640    8.5080    1.5630 C.ar      1 J5Q        -0.0268
      3 C22       -11.8080    8.7520    2.2360 C.ar      1 J5Q         0.1281
      4 C24       -10.5800    8.9520    1.6800 C.ar      1 J5Q        -0.0325
      5 C26       -11.6880    8.6720   -0.4400 C.ar      1 J5Q        -0.0640
      6 C01       -25.2820    9.0000   -5.6420 C.3       1 J5Q        -0.0343
      7 C02       -24.1830    9.3200   -4.6980 C.ar      1 J5Q        -0.0527
      8 C03       -23.4710    8.3270   -4.0460 C.ar      1 J5Q        -0.0663
      9 C04       -22.4450    8.6100   -3.1500 C.ar      1 J5Q        -0.0563
     10 C05       -23.7970   10.6270   -4.3940 C.ar      1 J5Q        -0.0663
     11 C06       -22.7700   10.9190   -3.5050 C.ar      1 J5Q        -0.0563
     12 C07       -22.0730    9.9190   -2.8580 C.ar      1 J5Q         0.0110
     13 C09       -19.7240    8.7740   -1.7470 C.3       1 J5Q         0.1452
     14 C11       -19.6580    6.5630   -0.9250 C.3       1 J5Q         0.1124
     15 C12       -20.3930    5.6140    0.0290 C.3       1 J5Q         0.0730
     16 C14       -18.1720    6.7050   -0.5910 C.3       1 J5Q         0.1196
     17 C16       -17.5720    7.7270   -1.5630 C.3       1 J5Q         0.1478
     18 C18       -15.4440    8.2550   -0.2680 C.2       1 J5Q         0.0882
     19 C19       -14.1110    8.1930   -0.6190 C.2       1 J5Q         0.0691
     20 C25       -10.5380    8.9020    0.2990 C.ar      1 J5Q        -0.0678
     21 C29       -18.2590    9.0900   -1.4590 C.3       1 J5Q         0.1286
     22 F23       -11.8740    8.7590    3.6190 F         1 J5Q        -0.1847
     23 N17       -16.1540    7.8630   -1.3910 N.pl3     1 J5Q        -0.1587
     24 N27       -14.1000    7.7820   -1.9520 N.2       1 J5Q        -0.2165
     25 N28       -15.2800    7.5710   -2.3900 N.2       1 J5Q        -0.0900
     26 O10       -20.2820    7.8680   -0.8000 O.3       1 J5Q        -0.3530
     27 O13       -21.7390    5.4760   -0.3400 O.3       1 J5Q        -0.3924
     28 O15       -18.0020    7.0960    0.7120 O.3       1 J5Q        -0.3857
     29 O30       -17.7800    9.8850   -2.5160 O.3       1 J5Q        -0.3847
     30 S08       -20.7380   10.2540   -1.7430 S.3       1 J5Q        -0.0726
     31 H1        -13.8901    8.3376    2.1000 H         1 J5Q         0.0566
     32 H2         -9.6963    9.1377    2.2797 H         1 J5Q         0.0569
     33 H3        -11.6191    8.6389   -1.5213 H         1 J5Q         0.0548
     34 H4        -25.3960    7.9084   -5.7155 H         1 J5Q         0.0378
     35 H5        -25.0446    9.4115   -6.6341 H         1 J5Q         0.0378
     36 H6        -26.2202    9.4428   -5.2762 H         1 J5Q         0.0378
     37 H7        -23.7225    7.2908   -4.2411 H         1 J5Q         0.0540
     38 H8        -21.9229    7.7915   -2.6678 H         1 J5Q         0.0548
     39 H9        -24.3202   11.4477   -4.8713 H         1 J5Q         0.0540
     40 H10       -22.5107   11.9543   -3.3156 H         1 J5Q         0.0548
     41 H11       -19.7771    8.3136   -2.7446 H         1 J5Q         0.0764
     42 H12       -19.7600    6.1918   -1.9554 H         1 J5Q         0.0646
     43 H13       -20.3394    6.0179    1.0507 H         1 J5Q         0.0584
     44 H14       -19.9085    4.6269   -0.0010 H         1 J5Q         0.0584
     45 H15       -17.6732    5.7350   -0.7334 H         1 J5Q         0.0655
     46 H16       -17.7456    7.3474   -2.5807 H         1 J5Q         0.0746
     47 H17       -15.8545    8.5518    0.6960 H         1 J5Q         0.1078
     48 H18        -9.5931    9.0446   -0.2128 H         1 J5Q         0.0596
     49 H19       -18.1101    9.5704   -0.4807 H         1 J5Q         0.0664
     50 H20       -22.1626    6.3259   -0.3122 H         1 J5Q         0.2095
     51 H21       -17.0742    7.1812    0.8974 H         1 J5Q         0.2100
     52 H22       -17.9895    9.4688   -3.3439 H         1 J5Q         0.2101
@<TRIPOS>BOND
     1    1    2 ar 
     2    1    5 ar 
     3   19    1 1  
     4    2    3 ar 
     5    3    4 ar 
     6    3   22 1  
     7   20    4 ar 
     8    5   20 ar 
     9    7    6 1  
    10    8    7 ar 
    11   10    7 ar 
    12    9    8 ar 
    13   12    9 ar 
    14   11   10 ar 
    15   12   11 ar 
    16   30   12 1  
    17   21   13 1  
    18   13   26 1  
    19   13   30 1  
    20   14   15 1  
    21   16   14 1  
    22   14   26 1  
    23   15   27 1  
    24   17   16 1  
    25   16   28 1  
    26   17   21 1  
    27   23   17 1  
    28   18   19 2  
    29   18   23 1  
    30   19   24 1  
    31   21   29 1  
    32   23   25 1  
    33   24   25 2  
    34    2   31 1  
    35    4   32 1  
    36    5   33 1  
    37    6   34 1  
    38    6   35 1  
    39    6   36 1  
    40    8   37 1  
    41    9   38 1  
    42   10   39 1  
    43   11   40 1  
    44   13   41 1  
    45   14   42 1  
    46   15   43 1  
    47   15   44 1  
    48   16   45 1  
    49   17   46 1  
    50   18   47 1  
    51   20   48 1  
    52   21   49 1  
    53   27   50 1  
    54   28   51 1  
    55   29   52 1  
@<TRIPOS>SUBSTRUCTURE
     1 J5Q         1

