### 
### Created by X-TOOL on Mon Aug  2 16:16:32 2021
### 

@<TRIPOS>MOLECULE
6qlo_ligand
   52    55     1     0     0
SMALL
GAST_HUCK


@<TRIPOS>ATOM
      1 C20       -12.9540    8.4940    0.2380 C.ar      1 J5E        -0.0251
      2 C21       -12.9850    8.5340    1.5860 C.ar      1 J5E        -0.0279
      3 C22       -11.8940    8.7760    2.3620 C.ar      1 J5E         0.1615
      4 C24       -10.6100    8.9980    1.7640 C.ar      1 J5E         0.1613
      5 C26       -10.5500    8.9660    0.3850 C.ar      1 J5E        -0.0335
      6 C01       -25.3940    9.0230   -5.8050 C.3       1 J5E        -0.0343
      7 C02       -24.2640    9.2990   -4.8020 C.ar      1 J5E        -0.0527
      8 C03       -23.8910   10.6180   -4.4340 C.ar      1 J5E        -0.0663
      9 C04       -22.8460   10.8790   -3.5040 C.ar      1 J5E        -0.0563
     10 C05       -23.5360    8.2720   -4.1770 C.ar      1 J5E        -0.0663
     11 C06       -22.5020    8.5310   -3.2470 C.ar      1 J5E        -0.0563
     12 C07       -22.1380    9.8380   -2.8870 C.ar      1 J5E         0.0110
     13 C09       -19.7670    8.7090   -1.6240 C.3       1 J5E         0.1452
     14 C11       -19.6660    6.4610   -0.8600 C.3       1 J5E         0.1124
     15 C12       -20.3540    5.4770    0.0370 C.3       1 J5E         0.0730
     16 C14       -18.1920    6.6170   -0.5690 C.3       1 J5E         0.1195
     17 C16       -17.6190    7.6800   -1.5250 C.3       1 J5E         0.1475
     18 C18       -15.4480    8.2280   -0.2360 C.2       1 J5E         0.0867
     19 C19       -14.1180    8.2060   -0.5340 C.2       1 J5E         0.0664
     20 C27       -11.6870    8.7070   -0.3460 C.ar      1 J5E        -0.0653
     21 C30       -18.2980    9.0300   -1.3950 C.3       1 J5E         0.1285
     22 F23       -11.9840    8.7920    3.6580 F         1 J5E        -0.1854
     23 F25        -9.5820    9.2370    2.4980 F         1 J5E        -0.1872
     24 N17       -16.1840    7.8190   -1.3520 N.pl3     1 J5E        -0.1596
     25 N28       -14.0880    7.7560   -1.8580 N.2       1 J5E        -0.2176
     26 N29       -15.2760    7.5430   -2.3090 N.2       1 J5E        -0.0907
     27 O10       -20.2890    7.7370   -0.7520 O.3       1 J5E        -0.3530
     28 O13       -21.7050    5.3710   -0.3020 O.3       1 J5E        -0.3924
     29 O15       -18.0030    7.0200    0.7570 O.3       1 J5E        -0.3857
     30 O31       -17.8780    9.8930   -2.4330 O.3       1 J5E        -0.3848
     31 S08       -20.8070   10.1760   -1.7130 S.3       1 J5E        -0.0726
     32 H1        -13.9348    8.3633    2.0799 H         1 J5E         0.0558
     33 H2         -9.6084    9.1447   -0.1214 H         1 J5E         0.0585
     34 H3        -25.8123    9.9772   -6.1577 H         1 J5E         0.0378
     35 H4        -26.1840    8.4353   -5.3147 H         1 J5E         0.0378
     36 H5        -24.9949    8.4589   -6.6609 H         1 J5E         0.0378
     37 H6        -24.4198   11.4546   -4.8762 H         1 J5E         0.0540
     38 H7        -22.5917   11.9058   -3.2673 H         1 J5E         0.0548
     39 H8        -23.7759    7.2424   -4.4167 H         1 J5E         0.0540
     40 H9        -21.9755    7.6959   -2.7994 H         1 J5E         0.0548
     41 H10       -19.8102    8.2554   -2.6252 H         1 J5E         0.0764
     42 H11       -19.7722    6.1027   -1.8945 H         1 J5E         0.0646
     43 H12       -20.2676    5.8153    1.0801 H         1 J5E         0.0584
     44 H13       -19.8752    4.4925   -0.0701 H         1 J5E         0.0584
     45 H14       -17.6801    5.6574   -0.7335 H         1 J5E         0.0655
     46 H15       -17.7982    7.3227   -2.5498 H         1 J5E         0.0746
     47 H16       -15.8720    8.5194    0.7238 H         1 J5E         0.1066
     48 H17       -11.6051    8.6644   -1.4261 H         1 J5E         0.0541
     49 H18       -18.1182    9.4844   -0.4095 H         1 J5E         0.0664
     50 H19       -22.1214    6.2197   -0.2082 H         1 J5E         0.2095
     51 H20       -17.0741    7.1261    0.9252 H         1 J5E         0.2100
     52 H21       -18.1052    9.5107   -3.2725 H         1 J5E         0.2101
@<TRIPOS>BOND
     1    1    2 ar 
     2   19    1 1  
     3    1   20 ar 
     4    2    3 ar 
     5    3    4 ar 
     6    3   22 1  
     7    5    4 ar 
     8    4   23 1  
     9   20    5 ar 
    10    7    6 1  
    11    8    7 ar 
    12   10    7 ar 
    13    9    8 ar 
    14   12    9 ar 
    15   11   10 ar 
    16   12   11 ar 
    17   31   12 1  
    18   21   13 1  
    19   13   27 1  
    20   13   31 1  
    21   14   15 1  
    22   16   14 1  
    23   14   27 1  
    24   15   28 1  
    25   17   16 1  
    26   16   29 1  
    27   17   21 1  
    28   24   17 1  
    29   18   19 2  
    30   18   24 1  
    31   19   25 1  
    32   21   30 1  
    33   24   26 1  
    34   25   26 2  
    35    2   32 1  
    36    5   33 1  
    37    6   34 1  
    38    6   35 1  
    39    6   36 1  
    40    8   37 1  
    41    9   38 1  
    42   10   39 1  
    43   11   40 1  
    44   13   41 1  
    45   14   42 1  
    46   15   43 1  
    47   15   44 1  
    48   16   45 1  
    49   17   46 1  
    50   18   47 1  
    51   20   48 1  
    52   21   49 1  
    53   28   50 1  
    54   29   51 1  
    55   30   52 1  
@<TRIPOS>SUBSTRUCTURE
     1 J5E         1

