### 
### Created by X-TOOL on Mon Aug  2 16:16:32 2021
### 

@<TRIPOS>MOLECULE
6qlp_ligand
   52    55     1     0     0
SMALL
GAST_HUCK


@<TRIPOS>ATOM
      1 C10       -20.1730    5.6700    0.0450 C.3       1 J3Q         0.0730
      2 C17       -13.9270    8.3500   -0.5310 C.2       1 J3Q         0.0655
      3 C20       -10.4150    9.0620    0.4430 C.ar      1 J3Q         0.1601
      4 C22       -10.5100    9.0980    1.8110 C.ar      1 J3Q         0.1939
      5 C24       -11.7530    8.9170    2.3840 C.ar      1 J3Q         0.1601
      6 C26       -12.8570    8.6640    1.6410 C.ar      1 J3Q        -0.0318
      7 C01       -24.5570    9.1300   -6.1980 C.3       1 J3Q        -0.0343
      8 C02       -23.5810    9.3560   -5.1090 C.ar      1 J3Q        -0.0527
      9 C03       -23.1250    8.3120   -4.3060 C.ar      1 J3Q        -0.0663
     10 C04       -22.2260    8.5620   -3.2900 C.ar      1 J3Q        -0.0563
     11 C05       -21.7490    9.8670   -3.0230 C.ar      1 J3Q         0.0110
     12 C07       -19.5740    8.8590   -1.6760 C.3       1 J3Q         0.1452
     13 C09       -19.4690    6.6440   -0.8840 C.3       1 J3Q         0.1124
     14 C12       -17.9660    6.7950   -0.5880 C.3       1 J3Q         0.1195
     15 C14       -17.3450    7.8400   -1.5490 C.3       1 J3Q         0.1475
     16 C16       -15.2600    8.4050   -0.2320 C.2       1 J3Q         0.0867
     17 C18       -12.7790    8.6310    0.2580 C.ar      1 J3Q        -0.0269
     18 C19       -11.5330    8.7930   -0.3270 C.ar      1 J3Q        -0.0318
     19 C29       -18.1060    9.1670   -1.4960 C.3       1 J3Q         0.1285
     20 C31       -22.1730   10.8860   -3.8310 C.ar      1 J3Q        -0.0563
     21 C32       -23.0940   10.6630   -4.8550 C.ar      1 J3Q        -0.0663
     22 F21        -9.2190    9.2400   -0.1110 F         1 J3Q        -0.1864
     23 F23        -9.4380    9.3340    2.5640 F         1 J3Q        -0.1880
     24 F25       -11.7990    8.9160    3.7100 F         1 J3Q        -0.1864
     25 N15       -15.9400    7.9730   -1.3320 N.pl3     1 J3Q        -0.1596
     26 N27       -13.8250    7.8830   -1.8320 N.2       1 J3Q        -0.2177
     27 N28       -15.0180    7.6430   -2.3050 N.2       1 J3Q        -0.0907
     28 O08       -20.1120    7.8960   -0.8110 O.3       1 J3Q        -0.3530
     29 O11       -21.5070    5.4380   -0.4390 O.3       1 J3Q        -0.3924
     30 O13       -17.7810    7.1610    0.7230 O.3       1 J3Q        -0.3857
     31 O30       -17.6140   10.0430   -2.4600 O.3       1 J3Q        -0.3848
     32 S06       -20.5870   10.3000   -1.7590 S.3       1 J3Q        -0.0726
     33 H1        -20.2178    6.0948    1.0586 H         1 J3Q         0.0584
     34 H2        -19.6198    4.7195    0.0698 H         1 J3Q         0.0584
     35 H3        -13.8073    8.4863    2.1314 H         1 J3Q         0.0525
     36 H4        -24.8159    8.0618   -6.2425 H         1 J3Q         0.0378
     37 H5        -24.1154    9.4405   -7.1564 H         1 J3Q         0.0378
     38 H6        -25.4653    9.7196   -6.0046 H         1 J3Q         0.0378
     39 H7        -23.4774    7.3018   -4.4802 H         1 J3Q         0.0540
     40 H8        -21.8758    7.7370   -2.6802 H         1 J3Q         0.0548
     41 H9        -19.6372    8.4034   -2.6752 H         1 J3Q         0.0764
     42 H10       -19.5682    6.2615   -1.9106 H         1 J3Q         0.0646
     43 H11       -17.4719    5.8265   -0.7550 H         1 J3Q         0.0655
     44 H12       -17.4678    7.4502   -2.5703 H         1 J3Q         0.0746
     45 H13       -15.6974    8.7330    0.7098 H         1 J3Q         0.1066
     46 H14       -11.4328    8.7078   -1.4030 H         1 J3Q         0.0525
     47 H15       -17.9614    9.6282   -0.5079 H         1 J3Q         0.0664
     48 H16       -21.7860   11.8861   -3.6727 H         1 J3Q         0.0548
     49 H17       -23.4392   11.4938   -5.4598 H         1 J3Q         0.0540
     50 H18       -21.9824    6.2602   -0.4603 H         1 J3Q         0.2095
     51 H19       -16.8507    7.2272    0.9039 H         1 J3Q         0.2100
     52 H20       -16.6924   10.2060   -2.2973 H         1 J3Q         0.2101
@<TRIPOS>BOND
     1   13    1 1  
     2    1   29 1  
     3   16    2 2  
     4    2   17 1  
     5    2   26 1  
     6    4    3 ar 
     7    3   18 ar 
     8    3   22 1  
     9    5    4 ar 
    10    4   23 1  
    11    6    5 ar 
    12    5   24 1  
    13   17    6 ar 
    14    8    7 1  
    15    9    8 ar 
    16    8   21 ar 
    17   10    9 ar 
    18   11   10 ar 
    19   11   20 ar 
    20   32   11 1  
    21   19   12 1  
    22   12   28 1  
    23   12   32 1  
    24   14   13 1  
    25   13   28 1  
    26   15   14 1  
    27   14   30 1  
    28   15   19 1  
    29   25   15 1  
    30   16   25 1  
    31   17   18 ar 
    32   19   31 1  
    33   20   21 ar 
    34   25   27 1  
    35   26   27 2  
    36    1   33 1  
    37    1   34 1  
    38    6   35 1  
    39    7   36 1  
    40    7   37 1  
    41    7   38 1  
    42    9   39 1  
    43   10   40 1  
    44   12   41 1  
    45   13   42 1  
    46   14   43 1  
    47   15   44 1  
    48   16   45 1  
    49   18   46 1  
    50   19   47 1  
    51   20   48 1  
    52   21   49 1  
    53   29   50 1  
    54   30   51 1  
    55   31   52 1  
@<TRIPOS>SUBSTRUCTURE
     1 J3Q         1

