### 
### Created by X-TOOL on Mon Aug  2 16:16:32 2021
### 

@<TRIPOS>MOLECULE
6qlr_ligand
   52    55     1     0     0
SMALL
GAST_HUCK


@<TRIPOS>ATOM
      1 C20       -12.9040    8.4540    0.1320 C.ar      1 J4N        -0.0235
      2 C21       -11.6500    8.6170   -0.4800 C.ar      1 J4N        -0.0308
      3 C22       -10.5130    8.8680    0.2810 C.ar      1 J4N         0.1265
      4 C24       -10.5530    8.9370    1.6770 C.ar      1 J4N         0.0009
      5 C01       -25.5910    9.1640   -5.4840 C.3       1 J4N        -0.0343
      6 C02       -24.4160    9.4150   -4.5930 C.ar      1 J4N        -0.0527
      7 C03       -23.6060    8.3880   -4.1230 C.ar      1 J4N        -0.0663
      8 C04       -22.5160    8.6470   -3.2740 C.ar      1 J4N        -0.0563
      9 C05       -24.0950   10.7140   -4.1700 C.ar      1 J4N        -0.0663
     10 C06       -23.0010   10.9790   -3.3190 C.ar      1 J4N        -0.0563
     11 C07       -22.1880    9.9420   -2.8510 C.ar      1 J4N         0.0110
     12 C09       -19.7420    8.7500   -1.7770 C.3       1 J4N         0.1452
     13 C11       -19.6820    6.5700   -0.9630 C.3       1 J4N         0.1124
     14 C12       -20.3780    5.6070    0.0270 C.3       1 J4N         0.0730
     15 C14       -18.1520    6.6810   -0.6470 C.3       1 J4N         0.1196
     16 C16       -17.5620    7.7510   -1.6110 C.3       1 J4N         0.1478
     17 C18       -15.4320    8.2620   -0.2930 C.2       1 J4N         0.0882
     18 C19       -14.0840    8.1780   -0.6480 C.2       1 J4N         0.0682
     19 C25       -11.8000    8.7450    2.2700 C.ar      1 J4N         0.1265
     20 C27       -12.9450    8.5090    1.5220 C.ar      1 J4N        -0.0308
     21 C30       -18.2630    9.1030   -1.4870 C.3       1 J4N         0.1286
     22 F23        -9.3800    9.0260   -0.3310 F         1 J4N        -0.1857
     23 F26       -11.9070    8.7840    3.5800 F         1 J4N        -0.1857
     24 N17       -16.1400    7.8560   -1.4230 N.pl3     1 J4N        -0.1587
     25 N28       -14.0760    7.7420   -1.9800 N.2       1 J4N        -0.2166
     26 N29       -15.2580    7.5580   -2.4050 N.2       1 J4N        -0.0900
     27 O10       -20.2500    7.8550   -0.8050 O.3       1 J4N        -0.3530
     28 O13       -21.7190    5.4600   -0.3620 O.3       1 J4N        -0.3924
     29 O15       -17.9660    7.0980    0.6690 O.3       1 J4N        -0.3857
     30 O31       -17.7770    9.9100   -2.5260 O.3       1 J4N        -0.3847
     31 S08       -20.7510   10.2590   -1.7690 S.3       1 J4N        -0.0726
     32 H1        -11.5674    8.5463   -1.5585 H         1 J4N         0.0533
     33 H2         -9.6633    9.1292    2.2657 H         1 J4N         0.0556
     34 H3        -25.6668    8.0873   -5.6963 H         1 J4N         0.0378
     35 H4        -25.4606    9.7153   -6.4269 H         1 J4N         0.0378
     36 H5        -26.5097    9.5047   -4.9841 H         1 J4N         0.0378
     37 H6        -23.8191    7.3666   -4.4171 H         1 J4N         0.0540
     38 H7        -21.9081    7.8161   -2.9347 H         1 J4N         0.0548
     39 H8        -24.7080   11.5416   -4.5083 H         1 J4N         0.0540
     40 H9        -22.7880   12.0001   -3.0241 H         1 J4N         0.0548
     41 H10       -19.8058    8.2768   -2.7680 H         1 J4N         0.0764
     42 H11       -19.8257    6.2121   -1.9932 H         1 J4N         0.0646
     43 H12       -20.3303    6.0226    1.0443 H         1 J4N         0.0584
     44 H13       -19.8766    4.6282    0.0069 H         1 J4N         0.0584
     45 H14       -17.6595    5.7100   -0.8038 H         1 J4N         0.0655
     46 H15       -17.7322    7.3956   -2.6380 H         1 J4N         0.0746
     47 H16       -15.8433    8.5780    0.6646 H         1 J4N         0.1078
     48 H17       -13.8910    8.3645    2.0311 H         1 J4N         0.0533
     49 H18       -18.1237    9.5736   -0.5026 H         1 J4N         0.0664
     50 H19       -22.1472    6.3079   -0.3453 H         1 J4N         0.2095
     51 H20       -17.0371    7.2031    0.8384 H         1 J4N         0.2100
     52 H21       -17.9752    9.5027   -3.3610 H         1 J4N         0.2101
@<TRIPOS>BOND
     1    1    2 ar 
     2   18    1 1  
     3    1   20 ar 
     4    2    3 ar 
     5    3    4 ar 
     6    3   22 1  
     7    4   19 ar 
     8    6    5 1  
     9    7    6 ar 
    10    9    6 ar 
    11    8    7 ar 
    12   11    8 ar 
    13   10    9 ar 
    14   11   10 ar 
    15   31   11 1  
    16   21   12 1  
    17   12   27 1  
    18   12   31 1  
    19   13   14 1  
    20   15   13 1  
    21   13   27 1  
    22   14   28 1  
    23   16   15 1  
    24   15   29 1  
    25   16   21 1  
    26   24   16 1  
    27   17   18 2  
    28   17   24 1  
    29   18   25 1  
    30   19   20 ar 
    31   19   23 1  
    32   21   30 1  
    33   24   26 1  
    34   25   26 2  
    35    2   32 1  
    36    4   33 1  
    37    5   34 1  
    38    5   35 1  
    39    5   36 1  
    40    7   37 1  
    41    8   38 1  
    42    9   39 1  
    43   10   40 1  
    44   12   41 1  
    45   13   42 1  
    46   14   43 1  
    47   14   44 1  
    48   15   45 1  
    49   16   46 1  
    50   17   47 1  
    51   20   48 1  
    52   21   49 1  
    53   28   50 1  
    54   29   51 1  
    55   30   52 1  
@<TRIPOS>SUBSTRUCTURE
     1 J4N         1

