### 
### Created by X-TOOL on Mon Aug  2 16:16:32 2021
### 

@<TRIPOS>MOLECULE
6qls_ligand
   60    63     1     0     0
SMALL
GAST_HUCK


@<TRIPOS>ATOM
      1 C02       -18.3490    6.8600   -0.8650 C.3       1 HRK         0.1195
      2 C03       -19.8370    6.7180   -1.1330 C.3       1 HRK         0.1122
      3 C04       -20.4460    5.5940   -0.3060 C.3       1 HRK         0.0730
      4 C07       -20.0550    9.0660   -1.5080 C.3       1 HRK         0.1360
      5 C09       -22.7280    9.9810   -1.2660 C.3       1 HRK         0.1353
      6 C10       -23.6570   10.3600   -0.0930 C.3       1 HRK         0.1189
      7 C12       -25.1060   10.0330   -0.4500 C.3       1 HRK         0.1126
      8 C14       -25.4930   10.6760   -1.8680 C.3       1 HRK         0.1118
      9 C16       -24.4760   10.1910   -2.8950 C.3       1 HRK         0.1115
     10 C17       -24.7170   10.7250   -4.3350 C.3       1 HRK         0.0730
     11 C20       -18.5900    9.3650   -1.3040 C.3       1 HRK         0.1267
     12 C22       -17.8210    8.0660   -1.6700 C.3       1 HRK         0.1476
     13 C24       -15.6860    8.4850   -0.2550 C.2       1 HRK         0.0883
     14 C25       -14.3000    8.4360   -0.6350 C.2       1 HRK         0.0701
     15 C26       -13.1280    8.6210    0.1740 C.ar      1 HRK        -0.0196
     16 C27       -13.1890    8.5380    1.5470 C.ar      1 HRK        -0.0601
     17 C28       -12.0780    8.6890    2.3590 C.ar      1 HRK        -0.0661
     18 C29       -10.8420    8.9070    1.7860 C.ar      1 HRK        -0.0661
     19 C30       -10.7360    8.9620    0.4030 C.ar      1 HRK        -0.0661
     20 C31       -11.8770    8.8230   -0.3820 C.ar      1 HRK        -0.0601
     21 N23       -16.3920    8.1790   -1.4760 N.pl3     1 HRK        -0.1587
     22 N32       -14.3330    8.0990   -2.0040 N.2       1 HRK        -0.2165
     23 N33       -15.5200    7.9460   -2.4530 N.2       1 HRK        -0.0900
     24 O01       -18.0950    7.1120    0.5130 O.3       1 HRK        -0.3857
     25 O05       -21.8320    5.4790   -0.6030 O.3       1 HRK        -0.3924
     26 O06       -20.4810    7.9370   -0.7850 O.3       1 HRK        -0.3552
     27 O11       -23.2710    9.7010    1.0980 O.3       1 HRK        -0.3857
     28 O13       -25.9560   10.5990    0.5400 O.3       1 HRK        -0.3865
     29 O15       -26.7770   10.1490   -2.2230 O.3       1 HRK        -0.3865
     30 O18       -24.7490   12.1410   -4.2420 O.3       1 HRK        -0.3924
     31 O19       -23.1780   10.5350   -2.4910 O.3       1 HRK        -0.3552
     32 O21       -18.1930   10.3690   -2.2330 O.3       1 HRK        -0.3849
     33 S08       -21.0290   10.4860   -0.9470 S.3       1 HRK        -0.0931
     34 H1        -17.8306    5.9405   -1.1743 H         1 HRK         0.0655
     35 H2        -19.9933    6.5069   -2.2012 H         1 HRK         0.0646
     36 H3        -20.3183    5.8162    0.7637 H         1 HRK         0.0584
     37 H4        -19.9404    4.6472   -0.5468 H         1 HRK         0.0584
     38 H5        -20.2349    8.8932   -2.5793 H         1 HRK         0.0741
     39 H6        -22.7440    8.8855   -1.3639 H         1 HRK         0.0740
     40 H7        -23.5773   11.4442    0.0746 H         1 HRK         0.0655
     41 H8        -25.2414    8.9420   -0.4867 H         1 HRK         0.0647
     42 H9        -25.5119   11.7747   -1.8185 H         1 HRK         0.0647
     43 H10       -24.5472    9.0940   -2.9326 H         1 HRK         0.0646
     44 H11       -25.6744   10.3485   -4.7242 H         1 HRK         0.0584
     45 H12       -23.9003   10.4066   -4.9996 H         1 HRK         0.0584
     46 H13       -18.3861    9.6788   -0.2696 H         1 HRK         0.0663
     47 H14       -17.9994    7.8691   -2.7374 H         1 HRK         0.0746
     48 H15       -16.1055    8.7025    0.7262 H         1 HRK         0.1077
     49 H16       -14.1490    8.3460    2.0125 H         1 HRK         0.0581
     50 H17       -12.1784    8.6363    3.4371 H         1 HRK         0.0606
     51 H18        -9.9638    9.0339    2.4086 H         1 HRK         0.0581
     52 H19        -9.7691    9.1125   -0.0635 H         1 HRK         0.0606
     53 H20       -11.7829    8.8745   -1.4607 H         1 HRK         0.0581
     54 H21       -17.1603    7.2153    0.6478 H         1 HRK         0.2100
     55 H22       -22.2683    6.2967   -0.3945 H         1 HRK         0.2095
     56 H23       -23.3531    8.7619    0.9799 H         1 HRK         0.2100
     57 H24       -25.7415   10.2297    1.3886 H         1 HRK         0.2100
     58 H25       -27.0159   10.4569   -3.0894 H         1 HRK         0.2100
     59 H26       -23.9202   12.4535   -3.8985 H         1 HRK         0.2095
     60 H27       -17.2553   10.5066   -2.1674 H         1 HRK         0.2101
@<TRIPOS>BOND
     1    1    2 1  
     2   12    1 1  
     3    1   24 1  
     4    2    3 1  
     5    2   26 1  
     6    3   25 1  
     7   11    4 1  
     8    4   26 1  
     9    4   33 1  
    10    5    6 1  
    11    5   31 1  
    12   33    5 1  
    13    6    7 1  
    14    6   27 1  
    15    7    8 1  
    16    7   28 1  
    17    9    8 1  
    18    8   29 1  
    19    9   10 1  
    20   31    9 1  
    21   10   30 1  
    22   12   11 1  
    23   11   32 1  
    24   21   12 1  
    25   13   14 2  
    26   13   21 1  
    27   14   15 1  
    28   14   22 1  
    29   15   16 ar 
    30   15   20 ar 
    31   16   17 ar 
    32   17   18 ar 
    33   18   19 ar 
    34   19   20 ar 
    35   21   23 1  
    36   22   23 2  
    37    1   34 1  
    38    2   35 1  
    39    3   36 1  
    40    3   37 1  
    41    4   38 1  
    42    5   39 1  
    43    6   40 1  
    44    7   41 1  
    45    8   42 1  
    46    9   43 1  
    47   10   44 1  
    48   10   45 1  
    49   11   46 1  
    50   12   47 1  
    51   13   48 1  
    52   16   49 1  
    53   17   50 1  
    54   18   51 1  
    55   19   52 1  
    56   20   53 1  
    57   24   54 1  
    58   25   55 1  
    59   27   56 1  
    60   28   57 1  
    61   29   58 1  
    62   30   59 1  
    63   32   60 1  
@<TRIPOS>SUBSTRUCTURE
     1 HRK         1

