### 
### Created by X-TOOL on Mon Aug  2 16:16:32 2021
### 

@<TRIPOS>MOLECULE
6qlt_ligand
   52    55     1     0     0
SMALL
GAST_HUCK


@<TRIPOS>ATOM
      1 C20       -12.5560    8.5730    0.4490 C.ar      1 J5W         0.0147
      2 C21       -11.2800    8.7750   -0.0940 C.ar      1 J5W        -0.0614
      3 C22       -10.1500    9.1230    0.6250 C.ar      1 J5W        -0.0699
      4 C24       -11.4630    9.0220    2.5620 C.ar      1 J5W        -0.0320
      5 C28       -17.9610    9.0650   -1.2520 C.3       1 J5W         0.1285
      6 C01       -24.6670    9.0540   -5.8240 C.3       1 J5W        -0.0343
      7 C02       -23.6350    9.3430   -4.8860 C.ar      1 J5W        -0.0527
      8 C03       -23.0990    8.3260   -4.1350 C.ar      1 J5W        -0.0663
      9 C04       -22.1350    8.5620   -3.1760 C.ar      1 J5W        -0.0563
     10 C05       -23.1770   10.6490   -4.5820 C.ar      1 J5W        -0.0663
     11 C06       -22.1930   10.9060   -3.6070 C.ar      1 J5W        -0.0563
     12 C07       -21.6760    9.8630   -2.8550 C.ar      1 J5W         0.0110
     13 C09       -19.3980    8.7470   -1.6450 C.3       1 J5W         0.1452
     14 C11       -19.3010    6.4260   -0.7180 C.3       1 J5W         0.1124
     15 C12       -20.0630    5.5650    0.3240 C.3       1 J5W         0.0730
     16 C14       -17.8110    6.5930   -0.3450 C.3       1 J5W         0.1195
     17 C16       -17.1380    7.7120   -1.3600 C.3       1 J5W         0.1475
     18 C18       -15.0970    8.3180   -0.0590 C.2       1 J5W         0.0867
     19 C19       -13.7230    8.2080   -0.3240 C.2       1 J5W         0.0699
     20 C23       -10.2390    9.2240    1.9900 C.ar      1 J5W        -0.0678
     21 C25       -12.5710    8.6820    1.7840 C.ar      1 J5W         0.1350
     22 F30       -13.6820    8.4780    2.4580 F         1 J5W        -0.1855
     23 N17       -15.7810    7.8250   -1.1570 N.pl3     1 J5W        -0.1597
     24 N26       -13.6890    7.6470   -1.6030 N.2       1 J5W        -0.2176
     25 N27       -14.8390    7.4320   -2.0500 N.2       1 J5W        -0.0908
     26 O10       -19.9760    7.7440   -0.7630 O.3       1 J5W        -0.3530
     27 O13       -21.3840    5.2970   -0.2300 O.3       1 J5W        -0.3924
     28 O15       -17.7280    7.0550    0.8950 O.3       1 J5W        -0.3857
     29 O29       -17.4680    9.9030   -2.2520 O.3       1 J5W        -0.3848
     30 S08       -20.3750   10.1610   -1.6510 S.3       1 J5W        -0.0726
     31 H1        -11.1691    8.6483   -1.1648 H         1 J5W         0.0571
     32 H2         -9.2107    9.3125    0.1182 H         1 J5W         0.0572
     33 H3        -11.5754    9.1272    3.6350 H         1 J5W         0.0592
     34 H4        -17.8912    9.5168   -0.2515 H         1 J5W         0.0664
     35 H5        -24.8268    7.9666   -5.8698 H         1 J5W         0.0378
     36 H6        -24.3735    9.4236   -6.8176 H         1 J5W         0.0378
     37 H7        -25.5978    9.5484   -5.5090 H         1 J5W         0.0378
     38 H8        -23.4421    7.3110   -4.2997 H         1 J5W         0.0540
     39 H9        -21.7114    7.7164   -2.6463 H         1 J5W         0.0548
     40 H10       -23.6021   11.4866   -5.1230 H         1 J5W         0.0540
     41 H11       -21.8407   11.9183   -3.4452 H         1 J5W         0.0548
     42 H12       -19.3851    8.3374   -2.6658 H         1 J5W         0.0764
     43 H13       -19.3645    5.9447   -1.7051 H         1 J5W         0.0646
     44 H14       -20.1554    6.1139    1.2727 H         1 J5W         0.0584
     45 H15       -19.5273    4.6201    0.4977 H         1 J5W         0.0584
     46 H16       -17.2854    5.6305   -0.4311 H         1 J5W         0.0655
     47 H17       -17.2654    7.3452   -2.3892 H         1 J5W         0.0746
     48 H18       -15.5451    8.7196    0.8486 H         1 J5W         0.1064
     49 H19        -9.3689    9.4559    2.5935 H         1 J5W         0.0572
     50 H20       -21.8353    6.1191   -0.3817 H         1 J5W         0.2095
     51 H21       -16.8154    7.1932    1.1198 H         1 J5W         0.2100
     52 H22       -17.9328   10.7311   -2.2273 H         1 J5W         0.2101
@<TRIPOS>BOND
     1    1    2 ar 
     2   19    1 1  
     3    1   21 ar 
     4    2    3 ar 
     5    3   20 ar 
     6    4   20 ar 
     7   21    4 ar 
     8    5   13 1  
     9   17    5 1  
    10    5   29 1  
    11    7    6 1  
    12    8    7 ar 
    13   10    7 ar 
    14    9    8 ar 
    15   12    9 ar 
    16   11   10 ar 
    17   12   11 ar 
    18   30   12 1  
    19   13   26 1  
    20   13   30 1  
    21   14   15 1  
    22   16   14 1  
    23   14   26 1  
    24   15   27 1  
    25   17   16 1  
    26   16   28 1  
    27   23   17 1  
    28   18   19 2  
    29   18   23 1  
    30   19   24 1  
    31   21   22 1  
    32   23   25 1  
    33   24   25 2  
    34    2   31 1  
    35    3   32 1  
    36    4   33 1  
    37    5   34 1  
    38    6   35 1  
    39    6   36 1  
    40    6   37 1  
    41    8   38 1  
    42    9   39 1  
    43   10   40 1  
    44   11   41 1  
    45   13   42 1  
    46   14   43 1  
    47   15   44 1  
    48   15   45 1  
    49   16   46 1  
    50   17   47 1  
    51   18   48 1  
    52   20   49 1  
    53   27   50 1  
    54   28   51 1  
    55   29   52 1  
@<TRIPOS>SUBSTRUCTURE
     1 J5W         1

