### 
### Created by X-TOOL on Mon Aug  2 16:16:32 2021
### 

@<TRIPOS>MOLECULE
6qlu_ligand
   55    58     1     0     0
SMALL
GAST_HUCK


@<TRIPOS>ATOM
      1 C20       -13.3160    8.6070    0.4240 C.ar      1 J62        -0.0301
      2 C21       -13.4480    8.4790    1.8170 C.ar      1 J62        -0.0681
      3 C22       -12.3850    8.6760    2.6740 C.ar      1 J62        -0.0384
      4 C24       -10.9350    9.1070    0.7540 C.ar      1 J62        -0.0162
      5 C28       -18.5280    9.1910   -1.3590 C.3       1 J62         0.1285
      6 C01       -25.5730    9.0200   -5.7430 C.3       1 J62        -0.0343
      7 C02       -24.4290    9.3220   -4.7280 C.ar      1 J62        -0.0527
      8 C03       -24.0720   10.6380   -4.3900 C.ar      1 J62        -0.0663
      9 C04       -23.0490   10.9400   -3.4760 C.ar      1 J62        -0.0563
     10 C05       -23.6830    8.3300   -4.0780 C.ar      1 J62        -0.0663
     11 C06       -22.6560    8.6320   -3.1560 C.ar      1 J62        -0.0563
     12 C07       -22.3340    9.9510   -2.8430 C.ar      1 J62         0.0110
     13 C09       -19.9700    8.8230   -1.6800 C.3       1 J62         0.1452
     14 C11       -19.8830    6.5950   -0.9160 C.3       1 J62         0.1124
     15 C12       -20.5870    5.6460    0.0850 C.3       1 J62         0.0730
     16 C14       -18.3840    6.7310   -0.6020 C.3       1 J62         0.1195
     17 C16       -17.7920    7.8560   -1.5330 C.3       1 J62         0.1475
     18 C18       -15.7770    8.3940   -0.1380 C.2       1 J62         0.0867
     19 C19       -14.4220    8.3480   -0.4220 C.2       1 J62         0.0657
     20 C23       -11.1530    8.9910    2.1100 C.ar      1 J62         0.1290
     21 C25       -12.0380    8.8990   -0.0640 C.ar      1 J62        -0.0604
     22 C31        -9.6200    9.4500    0.2710 C.3       1 J62        -0.0313
     23 F30       -10.1000    9.1770    2.9750 F         1 J62        -0.1918
     24 N17       -16.4080    7.9880   -1.2910 N.pl3     1 J62        -0.1596
     25 N26       -14.3520    7.9110   -1.7390 N.2       1 J62        -0.2176
     26 N27       -15.4940    7.7090   -2.2290 N.2       1 J62        -0.0907
     27 O10       -20.4810    7.8880   -0.7520 O.3       1 J62        -0.3530
     28 O13       -21.9150    5.4950   -0.3540 O.3       1 J62        -0.3924
     29 O15       -18.1980    7.1150    0.7360 O.3       1 J62        -0.3857
     30 O29       -18.0390   10.0040   -2.4180 O.3       1 J62        -0.3848
     31 S08       -21.0370   10.2850   -1.6710 S.3       1 J62        -0.0726
     32 H1        -14.4150    8.2174    2.2311 H         1 J62         0.0518
     33 H2        -12.5054    8.5885    3.7477 H         1 J62         0.0577
     34 H3        -18.4026    9.6502   -0.3673 H         1 J62         0.0664
     35 H4        -25.9976    9.9664   -6.1091 H         1 J62         0.0378
     36 H5        -26.3594    8.4336   -5.2454 H         1 J62         0.0378
     37 H6        -25.1693    8.4470   -6.5908 H         1 J62         0.0378
     38 H7        -24.6096   11.4564   -4.8550 H         1 J62         0.0540
     39 H8        -22.8178   11.9778   -3.2647 H         1 J62         0.0548
     40 H9        -23.9024    7.2900   -4.2909 H         1 J62         0.0540
     41 H10       -22.1092    7.8237   -2.6840 H         1 J62         0.0548
     42 H11       -19.9945    8.3737   -2.6838 H         1 J62         0.0764
     43 H12       -20.0189    6.2281   -1.9441 H         1 J62         0.0646
     44 H13       -20.5705    6.0825    1.0945 H         1 J62         0.0584
     45 H14       -20.0808    4.6695    0.0993 H         1 J62         0.0584
     46 H15       -17.8741    5.7744   -0.7890 H         1 J62         0.0655
     47 H16       -17.9259    7.5374   -2.5773 H         1 J62         0.0746
     48 H17       -16.2443    8.6893    0.8003 H         1 J62         0.1066
     49 H18       -11.9013    8.9665   -1.1372 H         1 J62         0.0509
     50 H19        -8.9328    9.5573    1.1232 H         1 J62         0.0382
     51 H20        -9.6687   10.3994   -0.2824 H         1 J62         0.0382
     52 H21        -9.2555    8.6550   -0.3961 H         1 J62         0.0382
     53 H22       -22.3411    6.3440   -0.3683 H         1 J62         0.2095
     54 H23       -17.2698    7.2227    0.9073 H         1 J62         0.2100
     55 H24       -17.0981   10.1026   -2.3315 H         1 J62         0.2101
@<TRIPOS>BOND
     1    1    2 ar 
     2   19    1 1  
     3    1   21 ar 
     4    2    3 ar 
     5    3   20 ar 
     6    4   20 ar 
     7   21    4 ar 
     8    4   22 1  
     9    5   13 1  
    10   17    5 1  
    11    5   30 1  
    12    7    6 1  
    13    8    7 ar 
    14   10    7 ar 
    15    9    8 ar 
    16   12    9 ar 
    17   11   10 ar 
    18   12   11 ar 
    19   31   12 1  
    20   13   27 1  
    21   13   31 1  
    22   14   15 1  
    23   16   14 1  
    24   14   27 1  
    25   15   28 1  
    26   17   16 1  
    27   16   29 1  
    28   24   17 1  
    29   18   19 2  
    30   18   24 1  
    31   19   25 1  
    32   20   23 1  
    33   24   26 1  
    34   25   26 2  
    35    2   32 1  
    36    3   33 1  
    37    5   34 1  
    38    6   35 1  
    39    6   36 1  
    40    6   37 1  
    41    8   38 1  
    42    9   39 1  
    43   10   40 1  
    44   11   41 1  
    45   13   42 1  
    46   14   43 1  
    47   15   44 1  
    48   15   45 1  
    49   16   46 1  
    50   17   47 1  
    51   18   48 1  
    52   21   49 1  
    53   22   50 1  
    54   22   51 1  
    55   22   52 1  
    56   28   53 1  
    57   29   54 1  
    58   30   55 1  
@<TRIPOS>SUBSTRUCTURE
     1 J62         1

