### 
### Created by X-TOOL on Mon Aug  2 16:16:33 2021
### 

@<TRIPOS>MOLECULE
6qm7_ligand
   53    57     1     0     0
SMALL
GAST_HUCK


@<TRIPOS>ATOM
      1 N1        165.3050  142.8590  129.2900 N.am      1 J6E        -0.2544
      2 N3        172.3130  145.9230  131.9520 N.2       1 J6E        -0.3496
      3 C4        166.3320  142.9200  130.1620 C.2       1 J6E         0.2886
      4 C5        164.8310  144.0810  128.6550 C.3       1 J6E         0.0348
      5 C6        163.5750  143.6450  127.9550 C.3       1 J6E        -0.0309
      6 C7        163.8290  142.2420  127.6420 C.3       1 J6E        -0.0309
      7 C8        164.5140  141.7290  128.8680 C.3       1 J6E         0.0348
      8 C10       169.2660  142.5380  133.3140 C.ar      1 J6E         0.0254
      9 C13       171.5210  144.8570  135.2070 C.2       1 J6E         0.0933
     10 C15       173.1210  146.7650  132.6700 C.2       1 J6E        -0.0172
     11 C17       172.1640  148.2560  135.4340 C.3       1 J6E         0.0501
     12 C20       174.5660  148.0200  134.9750 C.3       1 J6E         0.0501
     13 O         167.0230  143.9260  130.2370 O.2       1 J6E        -0.3908
     14 N         166.5860  141.7840  130.8590 N.am      1 J6E        -0.2210
     15 C3        167.5610  141.6180  131.8670 C.ar      1 J6E         0.0673
     16 C2        167.4060  140.5440  132.7280 C.ar      1 J6E        -0.0386
     17 C1        168.2250  140.4180  133.8350 C.ar      1 J6E        -0.0357
     18 C9        168.5570  142.5560  132.1180 C.ar      1 J6E        -0.0288
     19 C         169.1290  141.4160  134.1110 C.ar      1 J6E         0.1326
     20 F         169.9820  141.2220  135.1390 F         1 J6E        -0.1899
     21 C11       170.1520  143.6630  133.6430 C.2       1 J6E         0.0420
     22 N4        170.6800  144.2990  132.6110 N.2       1 J6E        -0.2690
     23 C16       171.6460  145.2030  132.8430 C.2       1 J6E         0.1908
     24 N2        172.0400  145.5310  134.1360 N.pl3     1 J6E        -0.1639
     25 C12       170.6130  143.9060  134.9750 C.2       1 J6E         0.0026
     26 C14       172.9380  146.5630  133.9980 C.2       1 J6E         0.1657
     27 N5        173.2710  147.3450  135.1020 N.pl3     1 J6E        -0.2869
     28 C19       174.8080  148.9030  136.1660 C.3       1 J6E         0.0670
     29 O1        173.7330  149.8270  136.3780 O.3       1 J6E        -0.3759
     30 C18       172.5220  149.1210  136.6090 C.3       1 J6E         0.0670
     31 H1        165.5702  144.4630  127.9355 H         1 J6E         0.0520
     32 H2        164.6148  144.8560  129.4050 H         1 J6E         0.0520
     33 H3        163.4131  144.2295  127.0373 H         1 J6E         0.0285
     34 H4        162.7009  143.7486  128.6147 H         1 J6E         0.0285
     35 H5        164.4792  142.1475  126.7598 H         1 J6E         0.0285
     36 H6        162.8873  141.7024  127.4630 H         1 J6E         0.0285
     37 H7        163.7838  141.4461  129.6405 H         1 J6E         0.0520
     38 H8        165.1523  140.8646  128.6326 H         1 J6E         0.0520
     39 H9        171.8399  145.0898  136.2219 H         1 J6E         0.1303
     40 H10       173.8090  147.4899  132.2375 H         1 J6E         0.0304
     41 H11       171.2706  147.6637  135.6807 H         1 J6E         0.0533
     42 H12       171.9509  148.8968  134.5657 H         1 J6E         0.0533
     43 H13       174.5686  148.6328  134.0615 H         1 J6E         0.0533
     44 H14       175.3646  147.2661  134.9131 H         1 J6E         0.0533
     45 H15       166.0273  140.9849  130.6369 H         1 J6E         0.2241
     46 H16       166.6412  139.8008  132.5336 H         1 J6E         0.0529
     47 H17       168.1552  139.5459  134.4751 H         1 J6E         0.0578
     48 H18       168.7831  143.3098  131.3725 H         1 J6E         0.0526
     49 H19       170.2226  143.3142  135.8016 H         1 J6E         0.0564
     50 H20       175.7367  149.4700  136.0046 H         1 J6E         0.0579
     51 H21       174.9146  148.2714  137.0603 H         1 J6E         0.0579
     52 H22       172.6415  148.4856  137.4990 H         1 J6E         0.0579
     53 H23       171.7121  149.8450  136.7814 H         1 J6E         0.0579
@<TRIPOS>BOND
     1    3    1 am 
     2    1    4 1  
     3    1    7 1  
     4   10    2 1  
     5   23    2 2  
     6    3   13 2  
     7   14    3 am 
     8    4    5 1  
     9    6    5 1  
    10    7    6 1  
    11    8   18 ar 
    12    8   19 ar 
    13   21    8 1  
    14   24    9 1  
    15    9   25 2  
    16   26   10 2  
    17   27   11 1  
    18   11   30 1  
    19   27   12 1  
    20   12   28 1  
    21   15   14 1  
    22   15   16 ar 
    23   18   15 ar 
    24   17   16 ar 
    25   19   17 ar 
    26   19   20 1  
    27   22   21 2  
    28   25   21 1  
    29   23   22 1  
    30   24   23 1  
    31   26   24 1  
    32   26   27 1  
    33   28   29 1  
    34   29   30 1  
    35    4   31 1  
    36    4   32 1  
    37    5   33 1  
    38    5   34 1  
    39    6   35 1  
    40    6   36 1  
    41    7   37 1  
    42    7   38 1  
    43    9   39 1  
    44   10   40 1  
    45   11   41 1  
    46   11   42 1  
    47   12   43 1  
    48   12   44 1  
    49   14   45 1  
    50   16   46 1  
    51   17   47 1  
    52   18   48 1  
    53   25   49 1  
    54   28   50 1  
    55   28   51 1  
    56   30   52 1  
    57   30   53 1  
@<TRIPOS>SUBSTRUCTURE
     1 J6E         1

