### 
### Created by X-TOOL on Mon Aug  2 16:17:13 2021
### 

@<TRIPOS>MOLECULE
6qmd_ligand
   35    37     1     0     0
SMALL
GAST_HUCK


@<TRIPOS>ATOM
      1 N3         12.4530   60.6490   25.7190 N.2       1 J6N        -0.0770
      2 C5         14.0900   61.9910   26.2580 C.ar      1 J6N         0.0692
      3 C6         15.2350   62.6270   26.7850 C.ar      1 J6N        -0.0480
      4 C7         15.5660   63.9280   26.3800 C.ar      1 J6N        -0.0361
      5 C8         14.7450   64.5800   25.4500 C.ar      1 J6N        -0.0640
      6 C10        13.3010   62.6580   25.3430 C.ar      1 J6N         0.1085
      7 C13        18.0730   64.1600   26.2430 C.3       1 J6N         0.0209
      8 C20        16.9820   64.3500   31.2290 C.ar      1 J6N         0.0331
      9 C22        18.0760   63.9680   30.4870 C.ar      1 J6N        -0.0543
     10 C1         11.1850   62.0010   24.1100 C.3       1 J6N         0.0634
     11 N2         12.3040   61.8180   25.0260 N.pl3     1 J6N        -0.1669
     12 N4         13.5430   60.7620   26.4660 N.2       1 J6N        -0.2025
     13 C9         13.6130   63.9560   24.9260 C.ar      1 J6N        -0.0357
     14 C11        16.7960   64.6270   26.9380 C.3       1 J6N         0.0328
     15 C14        18.0890   64.3750   24.7360 C.2       1 J6N         0.0388
     16 O15        18.7450   63.5420   24.0720 O.co2     1 J6N        -0.5687
     17 O16        17.4610   65.3480   24.2460 O.co2     1 J6N        -0.5687
     18 C17        16.8780   64.5230   28.4570 C.ar      1 J6N        -0.0284
     19 C18        15.7880   64.9020   29.2380 C.ar      1 J6N        -0.0576
     20 C19        15.8380   64.8160   30.6180 C.ar      1 J6N        -0.0543
     21 CL         17.0410   64.2450   32.9660 Cl        1 J6N        -0.0769
     22 C23        18.0270   64.0530   29.1000 C.ar      1 J6N        -0.0576
     23 H1         15.8592   62.1087   27.5039 H         1 J6N         0.0522
     24 H2         14.9939   65.5862   25.1326 H         1 J6N         0.0539
     25 H3         18.1958   63.0843   26.4374 H         1 J6N         0.0476
     26 H4         18.9208   64.7102   26.6771 H         1 J6N         0.0476
     27 H5         18.9698   63.6034   30.9803 H         1 J6N         0.0606
     28 H6         11.2437   63.0006   23.6546 H         1 J6N         0.0592
     29 H7         10.2390   61.9050   24.6630 H         1 J6N         0.0592
     30 H8         11.2279   61.2356   23.3211 H         1 J6N         0.0592
     31 H9         12.9849   64.4691   24.2068 H         1 J6N         0.0556
     32 H10        16.6849   65.6962   26.7045 H         1 J6N         0.0620
     33 H11        14.8883   65.2693   28.7577 H         1 J6N         0.0560
     34 H12        14.9831   65.1132   31.2146 H         1 J6N         0.0606
     35 H13        18.8869   63.7523   28.5124 H         1 J6N         0.0560
@<TRIPOS>BOND
     1   11    1 1  
     2   12    1 2  
     3    3    2 ar 
     4    2    6 ar 
     5    2   12 1  
     6    4    3 ar 
     7    4    5 ar 
     8   14    4 1  
     9    5   13 ar 
    10    6   11 1  
    11   13    6 ar 
    12   14    7 1  
    13    7   15 1  
    14    9    8 ar 
    15    8   20 ar 
    16    8   21 1  
    17   22    9 ar 
    18   11   10 1  
    19   18   14 1  
    20   15   16 ar 
    21   15   17 ar 
    22   18   19 ar 
    23   18   22 ar 
    24   19   20 ar 
    25    3   23 1  
    26    5   24 1  
    27    7   25 1  
    28    7   26 1  
    29    9   27 1  
    30   10   28 1  
    31   10   29 1  
    32   10   30 1  
    33   13   31 1  
    34   14   32 1  
    35   19   33 1  
    36   20   34 1  
    37   22   35 1  
@<TRIPOS>SUBSTRUCTURE
     1 J6N         1

