### 
### Created by X-TOOL on Mon Aug  2 16:16:33 2021
### 

@<TRIPOS>MOLECULE
6qme_ligand
   38    40     1     0     0
SMALL
GAST_HUCK


@<TRIPOS>ATOM
      1 C1         14.7390   65.7560   30.9370 C.3       1 J6Q        -0.0320
      2 C2         15.8960   65.0160   30.3190 C.ar      1 J6Q        -0.0385
      3 C3         15.9360   64.8550   28.9370 C.ar      1 J6Q        -0.0566
      4 C5         18.0010   63.6610   29.1090 C.ar      1 J6Q        -0.0645
      5 C6         17.9820   63.8080   30.4750 C.ar      1 J6Q        -0.0609
      6 C7         16.9420   64.4780   31.0790 C.ar      1 J6Q         0.0337
      7 C11        17.6160   65.1770   26.0700 C.3       1 J6Q         0.0208
      8 C12        17.9170   64.8540   24.6160 C.2       1 J6Q         0.0388
      9 C15        15.7380   63.5010   26.2450 C.ar      1 J6Q        -0.0362
     10 C16        14.9640   64.2920   25.3860 C.ar      1 J6Q        -0.0640
     11 C23        14.0560   61.7530   26.0700 C.ar      1 J6Q         0.0692
     12 C24        15.2800   62.2260   26.5870 C.ar      1 J6Q        -0.0480
     13 C4         16.9820   64.1800   28.3210 C.ar      1 J6Q        -0.0351
     14 CL8        16.9760   64.6290   32.8030 Cl        1 J6Q        -0.0833
     15 C9         17.0640   63.9820   26.8190 C.3       1 J6Q         0.0312
     16 O13        17.4030   65.5770   23.7430 O.co2     1 J6Q        -0.5687
     17 O14        18.6580   63.8840   24.3780 O.co2     1 J6Q        -0.5687
     18 C17        13.7570   63.8320   24.8740 C.ar      1 J6Q        -0.0357
     19 C18        13.3200   62.5570   25.2280 C.ar      1 J6Q         0.1085
     20 N19        12.2290   61.8540   24.9050 N.pl3     1 J6Q        -0.1669
     21 C20        11.1080   62.2130   24.0450 C.3       1 J6Q         0.0634
     22 N21        12.2690   60.6370   25.5230 N.2       1 J6Q        -0.0770
     23 N22        13.3840   60.5800   26.2320 N.2       1 J6Q        -0.2025
     24 H1         14.0481   66.0826   30.1458 H         1 J6Q         0.0391
     25 H2         15.1146   66.6348   31.4815 H         1 J6Q         0.0391
     26 H3         14.2092   65.0910   31.6349 H         1 J6Q         0.0391
     27 H4         15.1361   65.2639   28.3303 H         1 J6Q         0.0498
     28 H5         18.8229   63.1325   28.6398 H         1 J6Q         0.0504
     29 H6         18.7848   63.3970   31.0763 H         1 J6Q         0.0588
     30 H7         16.8764   65.9904   26.1064 H         1 J6Q         0.0476
     31 H8         18.5450   65.5039   26.5600 H         1 J6Q         0.0476
     32 H9         15.3134   65.2819   25.1156 H         1 J6Q         0.0539
     33 H10        15.8659   61.5999   27.2502 H         1 J6Q         0.0522
     34 H11        17.7850   63.1668   26.6588 H         1 J6Q         0.0619
     35 H12        13.1660   64.4537   24.2112 H         1 J6Q         0.0556
     36 H13        10.3895   61.3807   24.0127 H         1 J6Q         0.0592
     37 H14        11.4764   62.4190   23.0292 H         1 J6Q         0.0592
     38 H15        10.6122   63.1101   24.4442 H         1 J6Q         0.0592
@<TRIPOS>BOND
     1    2    1 1  
     2    3    2 ar 
     3    2    6 ar 
     4   13    3 ar 
     5    4    5 ar 
     6   13    4 ar 
     7    5    6 ar 
     8    6   14 1  
     9    7    8 1  
    10   15    7 1  
    11    8   16 ar 
    12    8   17 ar 
    13    9   10 ar 
    14    9   12 ar 
    15   15    9 1  
    16   10   18 ar 
    17   12   11 ar 
    18   11   19 ar 
    19   11   23 1  
    20   13   15 1  
    21   18   19 ar 
    22   19   20 1  
    23   20   21 1  
    24   20   22 1  
    25   22   23 2  
    26    1   24 1  
    27    1   25 1  
    28    1   26 1  
    29    3   27 1  
    30    4   28 1  
    31    5   29 1  
    32    7   30 1  
    33    7   31 1  
    34   10   32 1  
    35   12   33 1  
    36   15   34 1  
    37   18   35 1  
    38   21   36 1  
    39   21   37 1  
    40   21   38 1  
@<TRIPOS>SUBSTRUCTURE
     1 J6Q         1

