### 
### Created by X-TOOL on Mon Aug  2 16:16:33 2021
### 

@<TRIPOS>MOLECULE
6qmj_ligand
   63    66     1     0     0
SMALL
GAST_HUCK


@<TRIPOS>ATOM
      1 C1         13.6660   65.7330   22.9370 C.3       1 J6K         0.0581
      2 C3         13.8990   63.9800   24.5600 C.ar      1 J6K         0.1187
      3 C5         15.8280   63.7500   26.0200 C.ar      1 J6K        -0.0485
      4 C6         15.2810   62.5630   26.5050 C.ar      1 J6K        -0.0614
      5 C7         14.0440   62.0880   26.0160 C.ar      1 J6K         0.0610
      6 C11        11.1440   62.3070   23.9140 C.3       1 J6K         0.0624
      7 C12        13.3750   62.7800   25.0710 C.ar      1 J6K         0.1402
      8 C13        17.1660   64.2230   26.5760 C.3       1 J6K         0.0252
      9 C14        17.7690   65.4010   25.8260 C.3       1 J6K         0.0197
     10 C15        18.0480   65.1140   24.3560 C.2       1 J6K         0.0386
     11 O17        18.6130   64.0470   24.0100 O.co2     1 J6K        -0.5687
     12 C19        18.1050   64.0310   28.8990 C.ar      1 J6K        -0.0716
     13 C21        16.9740   64.8860   30.8480 C.ar      1 J6K        -0.0490
     14 C22        16.9700   65.0840   32.3420 C.3       1 J6K        -0.0366
     15 C23        15.9250   65.3360   30.0350 C.ar      1 J6K        -0.0288
     16 C24        14.7330   66.0450   30.6380 C.3       1 J6K         0.0591
     17 C26        13.2040   64.1260   30.3420 C.3       1 J6K         0.0202
     18 C31        10.4850   65.9080   31.1550 C.ar      1 J6K        -0.0351
     19 C35        11.8120   67.8940   31.3870 C.ar      1 J6K        -0.0351
     20 C36        15.9940   65.1190   28.6610 C.ar      1 J6K        -0.0616
     21 O2         13.1320   64.5910   23.6070 O.3       1 J6K        -0.3233
     22 C4         15.1210   64.4510   25.0420 C.ar      1 J6K        -0.0367
     23 N8         13.3360   60.9710   26.3430 N.2       1 J6K        -0.2069
     24 N9         12.2320   60.9480   25.6190 N.2       1 J6K        -0.0794
     25 N10        12.2450   62.0560   24.8330 N.pl3     1 J6K        -0.1675
     26 O16        17.6800   65.9960   23.5630 O.co2     1 J6K        -0.5687
     27 C18        17.0750   64.4690   28.0770 C.ar      1 J6K        -0.0421
     28 C20        18.0550   64.2360   30.2650 C.ar      1 J6K        -0.0732
     29 N25        13.7970   65.1000   31.2640 N.am      1 J6K        -0.2272
     30 S27        12.8570   65.6190   32.4780 S.o2      1 J6K         0.0719
     31 O28        12.2340   64.4770   33.0680 O.2       1 J6K        -0.1500
     32 O29        13.6450   66.5090   33.2760 O.2       1 J6K        -0.1500
     33 C30        11.6290   66.5420   31.6110 C.ar      1 J6K         0.1085
     34 C32         9.5230   66.6250   30.4760 C.ar      1 J6K        -0.0599
     35 C33         9.7040   67.9820   30.2510 C.ar      1 J6K        -0.0616
     36 C34        10.8490   68.6160   30.7070 C.ar      1 J6K        -0.0599
     37 H1         12.9330   66.1054   22.2062 H         1 J6K         0.0576
     38 H2         14.5931   65.4522   22.4158 H         1 J6K         0.0576
     39 H3         13.8833   66.5214   23.6726 H         1 J6K         0.0576
     40 H4         15.8101   61.9991   27.2647 H         1 J6K         0.0410
     41 H5         10.4039   61.4977   23.9988 H         1 J6K         0.0591
     42 H6         11.5279   62.3463   22.8839 H         1 J6K         0.0591
     43 H7         10.6684   63.2666   24.1649 H         1 J6K         0.0591
     44 H8         17.8681   63.3875   26.4384 H         1 J6K         0.0604
     45 H9         18.7172   65.6736   26.3125 H         1 J6K         0.0474
     46 H10        17.0687   66.2470   25.8876 H         1 J6K         0.0474
     47 H11        18.9580   63.5225   28.4644 H         1 J6K         0.0486
     48 H12        17.8869   64.6538   32.7713 H         1 J6K         0.0364
     49 H13        16.0920   64.5832   32.7759 H         1 J6K         0.0364
     50 H14        16.9283   66.1594   32.5693 H         1 J6K         0.0364
     51 H15        14.2064   66.5950   29.8442 H         1 J6K         0.0625
     52 H16        15.0881   66.7531   31.4012 H         1 J6K         0.0625
     53 H17        13.9398   63.8570   29.5698 H         1 J6K         0.0444
     54 H18        12.3160   64.5662   29.8648 H         1 J6K         0.0444
     55 H19        12.9115   63.2241   30.8997 H         1 J6K         0.0444
     56 H20        10.3461   64.8476   31.3321 H         1 J6K         0.0637
     57 H21        12.7090   68.3870   31.7440 H         1 J6K         0.0637
     58 H22        15.1834   65.4661   28.0305 H         1 J6K         0.0481
     59 H23        15.5277   65.3764   24.6504 H         1 J6K         0.0438
     60 H24        18.8690   63.8854   30.8891 H         1 J6K         0.0521
     61 H25         8.6274   66.1297   30.1188 H         1 J6K         0.0618
     62 H26         8.9485   68.5474   29.7176 H         1 J6K         0.0618
     63 H27        10.9892   69.6763   30.5307 H         1 J6K         0.0618
@<TRIPOS>BOND
     1   21    1 1  
     2    2    7 ar 
     3    2   21 1  
     4   22    2 ar 
     5    3    4 ar 
     6    8    3 1  
     7    3   22 ar 
     8    4    5 ar 
     9    5    7 ar 
    10    5   23 1  
    11   25    6 1  
    12    7   25 1  
    13    8    9 1  
    14   27    8 1  
    15    9   10 1  
    16   10   11 ar 
    17   10   26 ar 
    18   27   12 ar 
    19   28   12 ar 
    20   13   14 1  
    21   15   13 ar 
    22   13   28 ar 
    23   16   15 1  
    24   15   20 ar 
    25   29   16 1  
    26   29   17 1  
    27   33   18 ar 
    28   18   34 ar 
    29   33   19 ar 
    30   19   36 ar 
    31   20   27 ar 
    32   23   24 2  
    33   25   24 1  
    34   30   29 am 
    35   30   31 2  
    36   30   32 2  
    37   30   33 1  
    38   34   35 ar 
    39   35   36 ar 
    40    1   37 1  
    41    1   38 1  
    42    1   39 1  
    43    4   40 1  
    44    6   41 1  
    45    6   42 1  
    46    6   43 1  
    47    8   44 1  
    48    9   45 1  
    49    9   46 1  
    50   12   47 1  
    51   14   48 1  
    52   14   49 1  
    53   14   50 1  
    54   16   51 1  
    55   16   52 1  
    56   17   53 1  
    57   17   54 1  
    58   17   55 1  
    59   18   56 1  
    60   19   57 1  
    61   20   58 1  
    62   22   59 1  
    63   28   60 1  
    64   34   61 1  
    65   35   62 1  
    66   36   63 1  
@<TRIPOS>SUBSTRUCTURE
     1 J6K         1

