### 
### Created by X-TOOL on Mon Aug  2 16:16:34 2021
### 

@<TRIPOS>MOLECULE
6qmk_ligand
   65    69     1     0     0
SMALL
GAST_HUCK


@<TRIPOS>ATOM
      1 C1         13.6550   65.6600   22.9600 C.3       1 J8H         0.0581
      2 O2         13.1050   64.5240   23.6290 O.3       1 J8H        -0.3233
      3 C3         13.8690   63.9040   24.5850 C.ar      1 J8H         0.1187
      4 C4         15.0880   64.3680   25.0760 C.ar      1 J8H        -0.0367
      5 C5         15.7970   63.6630   26.0540 C.ar      1 J8H        -0.0485
      6 C6         15.2520   62.4720   26.5310 C.ar      1 J8H        -0.0614
      7 C7         14.0160   62.0020   26.0330 C.ar      1 J8H         0.0610
      8 N8         13.3060   60.8820   26.3500 N.2       1 J8H        -0.2069
      9 N9         12.2070   60.8730   25.6160 N.2       1 J8H        -0.0794
     10 N10        12.2290   61.9920   24.8360 N.pl3     1 J8H        -0.1675
     11 C11        11.1330   62.2540   23.9120 C.3       1 J8H         0.0624
     12 C12        13.3470   62.7050   25.0840 C.ar      1 J8H         0.1402
     13 C13        17.1340   64.1560   26.6030 C.3       1 J8H         0.0252
     14 C14        17.6980   65.3510   25.8450 C.3       1 J8H         0.0197
     15 C15        18.0010   65.0730   24.3810 C.2       1 J8H         0.0386
     16 O16        18.5720   64.0040   24.0640 O.co2     1 J8H        -0.5687
     17 O17        17.6450   65.9640   23.5730 O.co2     1 J8H        -0.5687
     18 C18        17.0750   64.4340   28.0980 C.ar      1 J8H        -0.0421
     19 C19        18.1020   64.0040   28.9280 C.ar      1 J8H        -0.0716
     20 C20        18.0550   64.2530   30.2890 C.ar      1 J8H        -0.0732
     21 C21        16.9860   64.9340   30.8550 C.ar      1 J8H        -0.0490
     22 C22        16.9860   65.1780   32.3420 C.3       1 J8H        -0.0366
     23 C23        15.9440   65.3740   30.0310 C.ar      1 J8H        -0.0288
     24 C24        14.7590   66.1190   30.5980 C.3       1 J8H         0.0594
     25 N25        13.7980   65.2330   31.2950 N.am      1 J8H        -0.2229
     26 C26        13.1830   64.1810   30.4460 C.3       1 J8H         0.0592
     27 C27        12.0720   64.7110   29.5410 C.3       1 J8H         0.0876
     28 O29        10.9000   65.0900   30.2870 O.3       1 J8H        -0.3144
     29 C30        10.8510   66.3990   30.7340 C.ar      1 J8H         0.1176
     30 C31         9.9160   67.2400   30.1510 C.ar      1 J8H        -0.0312
     31 C32         9.8230   68.5510   30.5570 C.ar      1 J8H        -0.0705
     32 C33        10.6640   69.0340   31.5510 C.ar      1 J8H        -0.0711
     33 C34        11.5990   68.1960   32.1350 C.ar      1 J8H        -0.0439
     34 C35        11.6870   66.8780   31.7220 C.ar      1 J8H         0.1365
     35 S36        12.8920   65.8370   32.4910 S.o2      1 J8H         0.0703
     36 O37        12.1970   64.7530   33.1050 O.2       1 J8H        -0.1516
     37 O38        13.7400   66.6590   33.2960 O.2       1 J8H        -0.1516
     38 C39        16.0100   65.1150   28.6690 C.ar      1 J8H        -0.0616
     39 H1         12.9279   66.0422   22.2284 H         1 J8H         0.0576
     40 H2         14.5791   65.3674   22.4400 H         1 J8H         0.0576
     41 H3         13.8815   66.4451   23.6964 H         1 J8H         0.0576
     42 H4         15.4957   65.2959   24.6914 H         1 J8H         0.0438
     43 H5         15.7793   61.9032   27.2882 H         1 J8H         0.0410
     44 H6         11.3243   63.1938   23.3733 H         1 J8H         0.0591
     45 H7         10.1915   62.3390   24.4745 H         1 J8H         0.0591
     46 H8         11.0559   61.4271   23.1907 H         1 J8H         0.0591
     47 H9         17.8481   63.3313   26.4620 H         1 J8H         0.0604
     48 H10        18.6309   65.6629   26.3373 H         1 J8H         0.0474
     49 H11        16.9649   66.1695   25.8963 H         1 J8H         0.0474
     50 H12        18.9462   63.4697   28.5073 H         1 J8H         0.0486
     51 H13        18.8654   63.9109   30.9224 H         1 J8H         0.0521
     52 H14        17.8967   64.7478   32.7841 H         1 J8H         0.0364
     53 H15        16.1010   64.7038   32.7914 H         1 J8H         0.0364
     54 H16        16.9603   66.2604   32.5360 H         1 J8H         0.0364
     55 H17        14.2352   66.6243   29.7732 H         1 J8H         0.0625
     56 H18        15.1263   66.8694   31.3135 H         1 J8H         0.0625
     57 H19        12.7598   63.4057   31.1016 H         1 J8H         0.0506
     58 H20        13.9674   63.7388   29.8142 H         1 J8H         0.0506
     59 H21        11.7959   63.9261   28.8215 H         1 J8H         0.0630
     60 H22        12.4466   65.5911   28.9978 H         1 J8H         0.0630
     61 H23         9.2583   66.8647   29.3754 H         1 J8H         0.0542
     62 H24         9.0920   69.2083   30.1002 H         1 J8H         0.0589
     63 H25        10.5885   70.0673   31.8698 H         1 J8H         0.0523
     64 H26        12.2577   68.5699   32.9105 H         1 J8H         0.0608
     65 H27        15.2029   65.4560   28.0307 H         1 J8H         0.0481
@<TRIPOS>BOND
     1    1    2 1  
     2    2    3 1  
     3    3    4 ar 
     4    3   12 ar 
     5    4    5 ar 
     6    5    6 ar 
     7    5   13 1  
     8    6    7 ar 
     9    7    8 1  
    10    7   12 ar 
    11    8    9 2  
    12    9   10 1  
    13   10   11 1  
    14   10   12 1  
    15   13   14 1  
    16   13   18 1  
    17   14   15 1  
    18   15   16 ar 
    19   15   17 ar 
    20   18   19 ar 
    21   18   38 ar 
    22   19   20 ar 
    23   20   21 ar 
    24   21   22 1  
    25   21   23 ar 
    26   23   24 1  
    27   23   38 ar 
    28   24   25 1  
    29   25   26 1  
    30   25   35 am 
    31   26   27 1  
    32   27   28 1  
    33   28   29 1  
    34   29   30 ar 
    35   29   34 ar 
    36   30   31 ar 
    37   31   32 ar 
    38   32   33 ar 
    39   33   34 ar 
    40   34   35 1  
    41   35   36 2  
    42   35   37 2  
    43    1   39 1  
    44    1   40 1  
    45    1   41 1  
    46    4   42 1  
    47    6   43 1  
    48   11   44 1  
    49   11   45 1  
    50   11   46 1  
    51   13   47 1  
    52   14   48 1  
    53   14   49 1  
    54   19   50 1  
    55   20   51 1  
    56   22   52 1  
    57   22   53 1  
    58   22   54 1  
    59   24   55 1  
    60   24   56 1  
    61   26   57 1  
    62   26   58 1  
    63   27   59 1  
    64   27   60 1  
    65   30   61 1  
    66   31   62 1  
    67   32   63 1  
    68   33   64 1  
    69   38   65 1  
@<TRIPOS>SUBSTRUCTURE
     1 J8H         1

