### 
### Created by X-TOOL on Mon Aug  2 16:16:34 2021
### 

@<TRIPOS>MOLECULE
6qmr_ligand
   51    53     1     0     0
SMALL
GAST_HUCK


@<TRIPOS>ATOM
      1 C1          5.8690    3.2660    7.6580 C.ar      1 J6T        -0.0610
      2 C2          4.8750    4.2710    7.7370 C.ar      1 J6T        -0.0263
      3 C3          3.6860    4.0040    8.4350 C.ar      1 J6T        -0.0505
      4 C11        -0.2130    2.8920   11.5530 C.ar      1 J6T        -0.0391
      5 C12        -1.3940    3.1940   12.2700 C.ar      1 J6T        -0.0774
      6 C13        -1.5020    4.4080   12.9630 C.ar      1 J6T        -0.0794
      7 C14        -0.4470    5.3440   12.9240 C.ar      1 J6T        -0.0671
      8 C15         0.7240    5.0780   12.1790 C.ar      1 J6T        -0.0006
      9 C16         1.8780    6.1130   12.2060 C.3       1 J6T         0.0318
     10 C17         2.2720    6.6880   10.8490 C.2       1 J6T         0.0445
     11 C20         5.6990    5.6940    5.8540 C.ar      1 J6T        -0.0476
     12 C21         5.9350    6.9490    5.2710 C.ar      1 J6T         0.0070
     13 C22         5.5840    8.1230    5.9690 C.ar      1 J6T        -0.0547
     14 C23         4.9540    8.0630    7.2240 C.ar      1 J6T        -0.0675
     15 C24         4.7100    6.7920    7.7680 C.ar      1 J6T        -0.0610
     16 C25         6.6000    6.9880    3.8750 C.3       1 J6T         0.0328
     17 C27         5.4710    7.1050    2.8000 C.3       1 J6T         0.0965
     18 C4          3.4880    2.7610    9.0710 C.ar      1 J6T        -0.0126
     19 C5          4.4780    1.7610    8.9650 C.ar      1 J6T        -0.0576
     20 C6          5.6770    2.0050    8.2620 C.ar      1 J6T        -0.0677
     21 C7          5.0950    5.6070    7.1110 C.ar      1 J6T        -0.0262
     22 C8          2.1690    2.4890    9.8050 C.3       1 J6T         0.1027
     23 O9          2.0350    3.5410   10.7830 O.3       1 J6T        -0.3090
     24 C10         0.8510    3.8200   11.4990 C.ar      1 J6T         0.0972
     25 O18         1.5180    6.3630    9.7820 O.co2     1 J6T        -0.5667
     26 O19         3.2340    7.4470   10.7290 O.co2     1 J6T        -0.5667
     27 N26         7.6400    8.0530    3.7110 N.4       1 J6T         0.2346
     28 O28         5.1140    8.5020    2.6560 O.3       1 J6T        -0.3873
     29 H1          6.7914    3.4681    7.1256 H         1 J6T         0.0567
     30 H2          2.9122    4.7614    8.4854 H         1 J6T         0.0561
     31 H3         -0.1234    1.9409   11.0407 H         1 J6T         0.0522
     32 H4         -2.2156    2.4870   12.2838 H         1 J6T         0.0532
     33 H5         -2.3989    4.6282   13.5306 H         1 J6T         0.0506
     34 H6         -0.5355    6.2759   13.4706 H         1 J6T         0.0528
     35 H7          2.7635    5.6231   12.6372 H         1 J6T         0.0565
     36 H8          1.5700    6.9482   12.8521 H         1 J6T         0.0565
     37 H9          5.9859    4.7906    5.3280 H         1 J6T         0.0562
     38 H10         5.8041    9.0892    5.5297 H         1 J6T         0.0561
     39 H11         4.6671    8.9649    7.7524 H         1 J6T         0.0600
     40 H12         4.2083    6.7201    8.7262 H         1 J6T         0.0567
     41 H13         7.1095    6.0244    3.7268 H         1 J6T         0.1038
     42 H14         4.5911    6.5288    3.1222 H         1 J6T         0.0637
     43 H15         5.8332    6.7139    1.8378 H         1 J6T         0.0637
     44 H16         4.3157    0.7947    9.4287 H         1 J6T         0.0559
     45 H17         6.4380    1.2366    8.1871 H         1 J6T         0.0600
     46 H18         2.2027    1.5078   10.3011 H         1 J6T         0.0775
     47 H19         1.3261    2.5140    9.0987 H         1 J6T         0.0775
     48 H20         8.3477    7.9436    4.4204 H         1 J6T         0.2011
     49 H21         7.2097    8.9599    3.8028 H         1 J6T         0.2011
     50 H22         8.0627    7.9724    2.7995 H         1 J6T         0.2011
     51 H23         4.8039    8.8360    3.4895 H         1 J6T         0.2099
@<TRIPOS>BOND
     1    2    1 ar 
     2   20    1 ar 
     3    3    2 ar 
     4    2   21 1  
     5   18    3 ar 
     6    4    5 ar 
     7   24    4 ar 
     8    5    6 ar 
     9    7    6 ar 
    10    8    7 ar 
    11    8    9 1  
    12   24    8 ar 
    13    9   10 1  
    14   10   25 ar 
    15   10   26 ar 
    16   11   12 ar 
    17   21   11 ar 
    18   12   13 ar 
    19   12   16 1  
    20   14   13 ar 
    21   15   14 ar 
    22   21   15 ar 
    23   16   17 1  
    24   16   27 1  
    25   17   28 1  
    26   18   19 ar 
    27   22   18 1  
    28   19   20 ar 
    29   23   22 1  
    30   23   24 1  
    31    1   29 1  
    32    3   30 1  
    33    4   31 1  
    34    5   32 1  
    35    6   33 1  
    36    7   34 1  
    37    9   35 1  
    38    9   36 1  
    39   11   37 1  
    40   13   38 1  
    41   14   39 1  
    42   15   40 1  
    43   16   41 1  
    44   17   42 1  
    45   17   43 1  
    46   19   44 1  
    47   20   45 1  
    48   22   46 1  
    49   22   47 1  
    50   27   48 1  
    51   27   49 1  
    52   27   50 1  
    53   28   51 1  
@<TRIPOS>SUBSTRUCTURE
     1 J6T         1

