### 
### Created by X-TOOL on Mon Aug  2 16:16:34 2021
### 

@<TRIPOS>MOLECULE
6qmt_ligand
   47    49     1     0     0
SMALL
GAST_HUCK


@<TRIPOS>ATOM
      1 C1         -7.4750    6.0020    2.2260 C.ar      1 J7B         0.0563
      2 C2         -7.3700    5.2840    3.4450 C.ar      1 J7B        -0.0338
      3 C3         -7.8740    3.9820    3.5820 C.ar      1 J7B        -0.0140
      4 C11        -6.2500   11.3390    4.9460 C.ar      1 J7B        -0.0717
      5 C12        -5.2400   11.9450    4.1680 C.ar      1 J7B        -0.0836
      6 C13        -4.6740   11.2370    3.0890 C.ar      1 J7B        -0.0822
      7 C14        -5.1100    9.9250    2.7900 C.ar      1 J7B        -0.0471
      8 C15        -7.8020    9.4420    5.5340 C.3       1 J7B         0.0298
      9 C16        -7.4430    8.1200    6.1640 C.2       1 J7B         0.0440
     10 C19        -7.8280    3.2660    4.9030 C.ar      1 J7B        -0.0235
     11 C21        -7.7970    1.8530    4.9580 C.ar      1 J7B        -0.0478
     12 C22        -7.8130    1.1370    6.1690 C.ar      1 J7B         0.0017
     13 C23        -7.8150    1.8600    7.3670 C.ar      1 J7B        -0.0551
     14 C24        -7.8370    3.2730    7.3540 C.ar      1 J7B        -0.0676
     15 C25        -7.8900    3.9810    6.1320 C.ar      1 J7B        -0.0608
     16 C26        -7.7330   -0.4090    6.1470 C.3       1 J7B        -0.0017
     17 C4         -8.4950    3.3960    2.4650 C.ar      1 J7B        -0.0500
     18 C5         -8.5540    4.0610    1.2170 C.ar      1 J7B        -0.0557
     19 C6         -8.0440    5.3680    1.0970 C.ar      1 J7B        -0.0416
     20 C7         -6.9570    7.4220    2.1830 C.2       1 J7B         0.2308
     21 N8         -6.5630    7.9950    3.3350 N.am      1 J7B        -0.2359
     22 C9         -6.1220    9.3260    3.5750 C.ar      1 J7B         0.0703
     23 C10        -6.6560   10.0210    4.6790 C.ar      1 J7B        -0.0082
     24 O17        -6.3980    7.5260    5.9920 O.co2     1 J7B        -0.5668
     25 O18        -8.3550    7.6060    6.9710 O.co2     1 J7B        -0.5668
     26 O20        -6.9330    8.0260    1.1200 O.2       1 J7B        -0.3738
     27 N27        -7.7520   -0.9920    7.5220 N.4       1 J7B         0.2308
     28 H1         -6.8871    5.7543    4.2939 H         1 J7B         0.0677
     29 H2         -6.7146   11.8934    5.7534 H         1 J7B         0.0516
     30 H3         -4.9019   12.9487    4.3991 H         1 J7B         0.0471
     31 H4         -3.9014   11.6997    2.4857 H         1 J7B         0.0522
     32 H5         -4.6699    9.3809    1.9622 H         1 J7B         0.0481
     33 H6         -8.0430   10.1591    6.3325 H         1 J7B         0.0560
     34 H7         -8.6833    9.2986    4.8916 H         1 J7B         0.0560
     35 H8         -7.7593    1.2981    4.0275 H         1 J7B         0.0562
     36 H9         -7.7995    1.3316    8.3134 H         1 J7B         0.0560
     37 H10        -7.8130    3.8189    8.2902 H         1 J7B         0.0600
     38 H11        -7.9773    5.0615    6.1308 H         1 J7B         0.0567
     39 H12        -6.8000   -0.7089    5.6475 H         1 J7B         0.0979
     40 H13        -8.5928   -0.8007    5.5837 H         1 J7B         0.0979
     41 H14        -8.9390    2.4119    2.5619 H         1 J7B         0.0658
     42 H15        -8.9901    3.5660    0.3568 H         1 J7B         0.0629
     43 H16        -8.0872    5.8850    0.1452 H         1 J7B         0.0668
     44 H17        -6.5831    7.3994    4.1380 H         1 J7B         0.2232
     45 H18        -7.6984   -1.9968    7.4617 H         1 J7B         0.2008
     46 H19        -8.6067   -0.7285    7.9869 H         1 J7B         0.2008
     47 H20        -6.9638   -0.6443    8.0453 H         1 J7B         0.2008
@<TRIPOS>BOND
     1    1    2 ar 
     2    1   19 ar 
     3   20    1 1  
     4    2    3 ar 
     5    3   10 1  
     6    3   17 ar 
     7    5    4 ar 
     8    4   23 ar 
     9    6    5 ar 
    10    7    6 ar 
    11   22    7 ar 
    12    8    9 1  
    13   23    8 1  
    14    9   24 ar 
    15    9   25 ar 
    16   10   11 ar 
    17   10   15 ar 
    18   11   12 ar 
    19   12   13 ar 
    20   12   16 1  
    21   14   13 ar 
    22   15   14 ar 
    23   16   27 1  
    24   18   17 ar 
    25   19   18 ar 
    26   21   20 am 
    27   20   26 2  
    28   21   22 1  
    29   22   23 ar 
    30    2   28 1  
    31    4   29 1  
    32    5   30 1  
    33    6   31 1  
    34    7   32 1  
    35    8   33 1  
    36    8   34 1  
    37   11   35 1  
    38   13   36 1  
    39   14   37 1  
    40   15   38 1  
    41   16   39 1  
    42   16   40 1  
    43   17   41 1  
    44   18   42 1  
    45   19   43 1  
    46   21   44 1  
    47   27   45 1  
    48   27   46 1  
    49   27   47 1  
@<TRIPOS>SUBSTRUCTURE
     1 J7B         1

