### 
### Created by X-TOOL on Mon Aug  2 16:10:20 2021
### 

@<TRIPOS>MOLECULE
6qmu_ligand
   15    15     1     0     0
SMALL
GAST_HUCK


@<TRIPOS>ATOM
      1 C1        -23.3950   -9.7900    5.6890 C.ar      1 ZCQ         0.0953
      2 C2        -22.9360  -10.9830    5.1700 C.ar      1 ZCQ         0.0092
      3 C3        -23.2940  -11.2560    3.8580 C.ar      1 ZCQ         0.1910
      4 C4        -24.0350  -10.3890    3.0790 C.ar      1 ZCQ        -0.0300
      5 C5        -24.4510   -9.1850    3.6170 C.ar      1 ZCQ        -0.0624
      6 C6        -24.1450   -8.9130    4.9220 C.ar      1 ZCQ        -0.0280
      7 N1        -22.8560  -12.4980    3.2610 N.2       1 ZCQ         0.3122
      8 O1        -23.1970   -9.2670    6.9420 O.3       1 ZCQ        -0.3319
      9 O2        -22.2260  -13.2830    3.9570 O.2       1 ZCQ         0.1781
     10 O3        -23.1300  -12.6910    2.0770 O.2       1 ZCQ         0.1781
     11 H1        -22.3308  -11.6672    5.7536 H         1 ZCQ         0.0614
     12 H2        -24.2876  -10.6494    2.0575 H         1 ZCQ         0.0598
     13 H3        -25.0070   -8.4729    3.0180 H         1 ZCQ         0.0604
     14 H4        -24.4976   -7.9895    5.3668 H         1 ZCQ         0.0586
     15 H5        -22.6824   -9.8748    7.4599 H         1 ZCQ         0.2481
@<TRIPOS>BOND
     1    1    2 ar 
     2    1    6 ar 
     3    1    8 1  
     4    2    3 ar 
     5    3    4 ar 
     6    3    7 1  
     7    4    5 ar 
     8    5    6 ar 
     9    7    9 2  
    10    7   10 2  
    11    2   11 1  
    12    4   12 1  
    13    5   13 1  
    14    6   14 1  
    15    8   15 1  
@<TRIPOS>SUBSTRUCTURE
     1 ZCQ         1

