### 
### Created by X-TOOL on Mon Aug  2 16:16:34 2021
### 

@<TRIPOS>MOLECULE
6qqt_ligand
   42    45     1     0     0
SMALL
GAST_HUCK


@<TRIPOS>ATOM
      1 C10       -23.3970   21.0180  -11.2690 C.ar      1 JCH         0.0681
      2 C13       -22.1760   23.5710   -9.5640 C.ar      1 JCH        -0.0249
      3 C15       -21.9330   23.1340   -7.1480 C.ar      1 JCH        -0.0395
      4 C20       -21.0340   24.2830   -9.5380 C.ar      1 JCH        -0.0662
      5 C21       -25.1010   22.3060  -10.6320 C.2       1 JCH         0.0266
      6 C22       -25.5710   21.0250  -10.7870 C.2       1 JCH        -0.0630
      7 C24       -20.2580   17.3160  -12.1970 C.2       1 JCH        -0.0314
      8 N01       -17.9540   16.1970  -12.5710 N.pl3     1 JCH        -0.3099
      9 C02       -18.8390   17.3170  -12.5060 C.2       1 JCH         0.1492
     10 N03       -18.4790   18.5980  -12.7050 N.pl3     1 JCH        -0.2070
     11 N04       -19.5660   19.3830  -12.5430 N.2       1 JCH        -0.2410
     12 C05       -20.6560   18.5930  -12.2800 C.2       1 JCH         0.0069
     13 C06       -22.0210   19.1240  -11.9640 C.ar      1 JCH        -0.0336
     14 C07       -23.1080   18.2720  -11.8870 C.ar      1 JCH        -0.0717
     15 C08       -24.3590   18.8020  -11.4990 C.ar      1 JCH        -0.0745
     16 C09       -24.4810   20.1920  -11.2000 C.ar      1 JCH        -0.0272
     17 N11       -23.7970   22.2860  -10.9250 N.pl3     1 JCH        -0.2556
     18 C12       -22.8960   23.4410  -10.8910 C.3       1 JCH         0.0804
     19 C14       -22.6620   22.9730   -8.3930 C.ar      1 JCH        -0.0662
     20 C16       -20.7730   23.8570   -7.1330 C.ar      1 JCH         0.0837
     21 O17       -20.0500   24.0240   -5.9270 O.3       1 JCH        -0.3257
     22 C18       -20.5030   25.1630   -5.1500 C.3       1 JCH         0.0579
     23 C19       -20.2970   24.4390   -8.2930 C.ar      1 JCH        -0.0395
     24 C23       -22.1200   20.4970  -11.6520 C.ar      1 JCH        -0.0361
     25 H1        -22.3064   22.6835   -6.2355 H         1 JCH         0.0525
     26 H2        -20.6622   24.7415  -10.4472 H         1 JCH         0.0531
     27 H3        -25.6819   23.1753  -10.3274 H         1 JCH         0.0940
     28 H4        -26.5969   20.6982  -10.6239 H         1 JCH         0.0290
     29 H5        -20.8737   16.4528  -11.9483 H         1 JCH         0.0171
     30 H6        -16.9606   16.3384  -12.8034 H         1 JCH         0.1782
     31 H7        -18.3095   15.2483  -12.3855 H         1 JCH         0.1782
     32 H8        -17.5316   18.9256  -12.9416 H         1 JCH         0.2511
     33 H9        -23.0022   17.2186  -12.1197 H         1 JCH         0.0518
     34 H10       -25.2249   18.1536  -11.4286 H         1 JCH         0.0538
     35 H11       -22.1480   23.3294  -11.6897 H         1 JCH         0.0744
     36 H12       -23.4847   24.3538  -11.0648 H         1 JCH         0.0744
     37 H13       -23.5776   22.3932   -8.4170 H         1 JCH         0.0531
     38 H14       -19.9058   25.2397   -4.2294 H         1 JCH         0.0575
     39 H15       -21.5634   25.0306   -4.8892 H         1 JCH         0.0575
     40 H16       -20.3831   26.0821   -5.7424 H         1 JCH         0.0575
     41 H17       -19.3762   25.0107   -8.2752 H         1 JCH         0.0525
     42 H18       -21.2498   21.1415  -11.7013 H         1 JCH         0.0544
@<TRIPOS>BOND
     1    1   16 ar 
     2   17    1 1  
     3    1   24 ar 
     4    2    4 ar 
     5   18    2 1  
     6    2   19 ar 
     7   19    3 ar 
     8    3   20 ar 
     9    4   23 ar 
    10    5    6 2  
    11   17    5 1  
    12    6   16 1  
    13    7    9 2  
    14   12    7 1  
    15    9    8 1  
    16   10    9 1  
    17   11   10 1  
    18   12   11 2  
    19   13   12 1  
    20   13   14 ar 
    21   24   13 ar 
    22   15   14 ar 
    23   16   15 ar 
    24   17   18 1  
    25   20   21 1  
    26   20   23 ar 
    27   21   22 1  
    28    3   25 1  
    29    4   26 1  
    30    5   27 1  
    31    6   28 1  
    32    7   29 1  
    33    8   30 1  
    34    8   31 1  
    35   10   32 1  
    36   14   33 1  
    37   15   34 1  
    38   18   35 1  
    39   18   36 1  
    40   19   37 1  
    41   22   38 1  
    42   22   39 1  
    43   22   40 1  
    44   23   41 1  
    45   24   42 1  
@<TRIPOS>SUBSTRUCTURE
     1 JCH         1

