### 
### Created by X-TOOL on Mon Aug  2 16:16:34 2021
### 

@<TRIPOS>MOLECULE
6qqu_ligand
   26    28     1     0     0
SMALL
GAST_HUCK


@<TRIPOS>ATOM
      1 C10       -23.1680   21.3210  -11.4720 C.ar      1 JF8         0.0647
      2 C13       -25.3330   21.2900  -10.8740 C.2       1 JF8        -0.0628
      3 C15       -19.8650   17.6960  -12.6530 C.2       1 JF8         0.1315
      4 N01       -17.5430   16.7910  -13.0680 N.pl3     1 JF8        -0.2931
      5 C02       -18.4950   17.8540  -12.8620 C.2       1 JF8         0.2018
      6 N03       -18.2200   19.1800  -12.8500 N.pl3     1 JF8        -0.1872
      7 N04       -19.3810   19.8450  -12.6210 N.2       1 JF8        -0.2235
      8 C05       -20.3890   18.9810  -12.5420 C.2       1 JF8         0.0479
      9 C06       -21.7920   19.4670  -12.1890 C.ar      1 JF8        -0.0268
     10 C07       -22.8660   18.5660  -11.9880 C.ar      1 JF8        -0.0705
     11 C08       -24.0990   19.0710  -11.5720 C.ar      1 JF8        -0.0740
     12 C09       -24.2390   20.4650  -11.3110 C.ar      1 JF8        -0.0269
     13 N11       -23.5740   22.5960  -11.1650 N.pl3     1 JF8        -0.2793
     14 C12       -24.8650   22.5940  -10.8060 C.2       1 JF8         0.0223
     15 C14       -21.9010   20.8250  -11.8970 C.ar      1 JF8        -0.0350
     16 C16       -20.5290   16.3430  -12.6320 C.1       1 JF8         0.0465
     17 N17       -20.9760   15.2870  -12.6280 N.1       1 JF8        -0.3806
     18 H1        -26.3418   20.9533  -10.6399 H         1 JF8         0.0292
     19 H2        -16.5477   17.0122  -13.2143 H         1 JF8         0.1876
     20 H3        -17.8582   15.8104  -13.0688 H         1 JF8         0.1876
     21 H4        -17.2937   19.6082  -12.9899 H         1 JF8         0.2579
     22 H5        -22.7329   17.5031  -12.1543 H         1 JF8         0.0523
     23 H6        -24.9460   18.4060  -11.4481 H         1 JF8         0.0539
     24 H7        -22.9738   23.4321  -11.2048 H         1 JF8         0.2270
     25 H8        -25.4468   23.4662  -10.5115 H         1 JF8         0.0940
     26 H9        -21.0466   21.4856  -11.9904 H         1 JF8         0.0552
@<TRIPOS>BOND
     1    1   12 ar 
     2    1   13 1  
     3   15    1 ar 
     4   12    2 1  
     5    2   14 2  
     6    3    5 2  
     7    8    3 1  
     8    3   16 1  
     9    5    4 1  
    10    6    5 1  
    11    7    6 1  
    12    8    7 2  
    13    9    8 1  
    14    9   10 ar 
    15    9   15 ar 
    16   10   11 ar 
    17   11   12 ar 
    18   13   14 1  
    19   16   17 3  
    20    2   18 1  
    21    4   19 1  
    22    4   20 1  
    23    6   21 1  
    24   10   22 1  
    25   11   23 1  
    26   13   24 1  
    27   14   25 1  
    28   15   26 1  
@<TRIPOS>SUBSTRUCTURE
     1 JF8         1

