### 
### Created by X-TOOL on Mon Aug  2 16:16:35 2021
### 

@<TRIPOS>MOLECULE
6qqv_ligand
   39    42     1     0     0
SMALL
GAST_HUCK


@<TRIPOS>ATOM
      1 C13       -22.0980  -19.2040   12.0460 C.ar      1 JEW        -0.0062
      2 C15       -24.4490  -18.8760   11.6380 C.ar      1 JEW        -0.0737
      3 C17       -25.6520  -21.0970   10.9190 C.2       1 JEW        -0.0621
      4 C20       -20.3180  -17.3510   12.3140 C.2       1 JEW        -0.0231
      5 C21       -18.9540  -17.3620   12.6110 C.2       1 JEW         0.0818
      6 N01       -23.9430  -20.7320    8.2270 N.1       1 JEW        -0.3348
      7 C02       -23.2950  -21.6680    8.3260 C.1       1 JEW         0.0935
      8 C03       -22.4230  -22.9020    8.4420 C.ar      1 JEW         0.0995
      9 C04       -22.2930  -23.6940    9.5930 C.ar      1 JEW         0.0218
     10 C05       -21.4600  -24.8110    9.5560 C.ar      1 JEW        -0.0460
     11 C06       -20.7660  -25.1450    8.4110 C.ar      1 JEW        -0.0597
     12 C07       -20.8960  -24.3590    7.2820 C.ar      1 JEW        -0.0574
     13 C08       -21.7190  -23.2500    7.2980 C.ar      1 JEW        -0.0333
     14 C09       -22.9850  -23.4770   10.9290 C.3       1 JEW         0.0924
     15 N10       -23.8550  -22.3490   11.0030 N.pl3     1 JEW        -0.2518
     16 C11       -23.4580  -21.0820   11.3580 C.ar      1 JEW         0.0697
     17 C12       -22.1910  -20.5520   11.7160 C.ar      1 JEW        -0.0322
     18 C14       -23.2070  -18.3520   11.9990 C.ar      1 JEW        -0.0681
     19 C16       -24.5600  -20.2530   11.3220 C.ar      1 JEW        -0.0263
     20 C18       -25.1630  -22.3810   10.7420 C.2       1 JEW         0.0278
     21 C19       -20.7350  -18.6650   12.3610 C.2       1 JEW         0.0733
     22 N22       -18.5970  -18.6530   12.7870 N.2       1 JEW        -0.2235
     23 N23       -19.6880  -19.4450   12.6230 N.pl3     1 JEW        -0.2335
     24 N24       -18.0690  -16.2460   12.7120 N.pl3     1 JEW        -0.3373
     25 H1        -25.3221  -18.2347   11.5996 H         1 JEW         0.0540
     26 H2        -26.6847  -20.7815   10.7774 H         1 JEW         0.0293
     27 H3        -20.9306  -16.4790   12.0899 H         1 JEW         0.0316
     28 H4        -21.3556  -25.4276   10.4414 H         1 JEW         0.0582
     29 H5        -20.1234  -26.0179    8.3973 H         1 JEW         0.0671
     30 H6        -20.3502  -24.6137    6.3807 H         1 JEW         0.0584
     31 H7        -21.8163  -22.6433    6.4049 H         1 JEW         0.0699
     32 H8        -22.2063  -23.3531   11.6959 H         1 JEW         0.0793
     33 H9        -23.5788  -24.3759   11.1512 H         1 JEW         0.0793
     34 H10       -21.3119  -21.1861   11.7320 H         1 JEW         0.0554
     35 H11       -23.1029  -17.3002   12.2395 H         1 JEW         0.0525
     36 H12       -25.7400  -23.2554   10.4446 H         1 JEW         0.0946
     37 H13       -19.7030  -20.4727   12.6898 H         1 JEW         0.2442
     38 H14       -17.0757  -16.3954   12.9398 H         1 JEW         0.1678
     39 H15       -18.4239  -15.2916   12.5570 H         1 JEW         0.1678
@<TRIPOS>BOND
     1    1   17 ar 
     2   18    1 ar 
     3    1   21 1  
     4    2   18 ar 
     5   19    2 ar 
     6    3   19 1  
     7   20    3 2  
     8    4    5 1  
     9   21    4 2  
    10    5   22 2  
    11    5   24 1  
    12    7    6 3  
    13    8    7 1  
    14    9    8 ar 
    15    8   13 ar 
    16    9   10 ar 
    17   14    9 1  
    18   10   11 ar 
    19   11   12 ar 
    20   13   12 ar 
    21   15   14 1  
    22   15   16 1  
    23   15   20 1  
    24   16   17 ar 
    25   16   19 ar 
    26   21   23 1  
    27   22   23 1  
    28    2   25 1  
    29    3   26 1  
    30    4   27 1  
    31   10   28 1  
    32   11   29 1  
    33   12   30 1  
    34   13   31 1  
    35   14   32 1  
    36   14   33 1  
    37   17   34 1  
    38   18   35 1  
    39   20   36 1  
    40   23   37 1  
    41   24   38 1  
    42   24   39 1  
@<TRIPOS>SUBSTRUCTURE
     1 JEW         1

