### 
### Created by X-TOOL on Mon Aug  2 16:16:35 2021
### 

@<TRIPOS>MOLECULE
6qqw_ligand
   38    41     1     0     0
SMALL
GAST_HUCK


@<TRIPOS>ATOM
      1 C10       -24.3890   20.2630  -11.1850 C.ar      1 JDQ        -0.0272
      2 C15       -22.1420   23.6430   -9.5340 C.ar      1 JDQ        -0.0141
      3 C17       -21.9630   22.9830   -7.1840 C.ar      1 JDQ        -0.0685
      4 C20       -20.9990   24.4640   -9.3960 C.ar      1 JDQ        -0.0578
      5 C21       -24.9910   22.4150  -10.6460 C.2       1 JDQ         0.0268
      6 C22       -25.4790   21.1080  -10.7850 C.2       1 JDQ        -0.0629
      7 N01       -17.8880   16.2210  -12.6520 N.pl3     1 JDQ        -0.3099
      8 C02       -18.7610   17.3420  -12.5510 C.2       1 JDQ         0.1492
      9 N03       -18.4040   18.6100  -12.7270 N.pl3     1 JDQ        -0.2070
     10 N04       -19.4790   19.3690  -12.5460 N.2       1 JDQ        -0.2410
     11 C05       -20.5440   18.6170  -12.2870 C.2       1 JDQ         0.0069
     12 C06       -20.1410   17.3360  -12.2400 C.2       1 JDQ        -0.0314
     13 C07       -21.9080   19.1630  -11.9590 C.ar      1 JDQ        -0.0336
     14 C08       -23.0190   18.3250  -11.8680 C.ar      1 JDQ        -0.0717
     15 C09       -24.2700   18.8710  -11.4800 C.ar      1 JDQ        -0.0745
     16 C11       -23.3000   21.0840  -11.2730 C.ar      1 JDQ         0.0683
     17 C12       -22.0220   20.5190  -11.6640 C.ar      1 JDQ        -0.0361
     18 N13       -23.7100   22.3930  -10.9390 N.pl3     1 JDQ        -0.2541
     19 C14       -22.8700   23.5580  -10.8960 C.3       1 JDQ         0.0854
     20 C16       -22.6280   22.9080   -8.4230 C.ar      1 JDQ        -0.0578
     21 C18       -20.8150   23.8000   -7.0470 C.ar      1 JDQ        -0.0687
     22 C19       -20.3350   24.5440   -8.1510 C.ar      1 JDQ        -0.0685
     23 H1        -22.3297   22.4158   -6.3361 H         1 JDQ         0.0599
     24 H2        -20.6326   25.0312  -10.2440 H         1 JDQ         0.0557
     25 H3        -25.5684   23.2894  -10.3492 H         1 JDQ         0.0940
     26 H4        -26.5068   20.7889  -10.6184 H         1 JDQ         0.0290
     27 H5        -18.2518   15.2696  -12.4992 H         1 JDQ         0.1782
     28 H6        -16.8930   16.3618  -12.8778 H         1 JDQ         0.1782
     29 H7        -17.4591   18.9455  -12.9625 H         1 JDQ         0.2511
     30 H8        -20.7545   16.4665  -12.0086 H         1 JDQ         0.0171
     31 H9        -22.9279   17.2681  -12.0912 H         1 JDQ         0.0518
     32 H10       -25.1397   18.2281  -11.4072 H         1 JDQ         0.0538
     33 H11       -21.1486   21.1580  -11.7270 H         1 JDQ         0.0544
     34 H12       -22.1249   23.4984  -11.7030 H         1 JDQ         0.0766
     35 H13       -23.4887   24.4570  -11.0338 H         1 JDQ         0.0766
     36 H14       -23.5114   22.2884   -8.5274 H         1 JDQ         0.0557
     37 H15       -20.3021   23.8559   -6.0936 H         1 JDQ         0.0559
     38 H16       -19.4597   25.1741   -8.0419 H         1 JDQ         0.0599
@<TRIPOS>BOND
     1    1    6 1  
     2    1   15 ar 
     3   16    1 ar 
     4    2    4 ar 
     5   19    2 1  
     6    2   20 ar 
     7   20    3 ar 
     8    3   21 ar 
     9    4   22 ar 
    10    5    6 2  
    11   18    5 1  
    12    8    7 1  
    13    8    9 1  
    14   12    8 2  
    15   10    9 1  
    16   11   10 2  
    17   11   12 1  
    18   13   11 1  
    19   13   14 ar 
    20   17   13 ar 
    21   15   14 ar 
    22   16   17 ar 
    23   18   16 1  
    24   18   19 1  
    25   21   22 ar 
    26    3   23 1  
    27    4   24 1  
    28    5   25 1  
    29    6   26 1  
    30    7   27 1  
    31    7   28 1  
    32    9   29 1  
    33   12   30 1  
    34   14   31 1  
    35   15   32 1  
    36   17   33 1  
    37   19   34 1  
    38   19   35 1  
    39   20   36 1  
    40   21   37 1  
    41   22   38 1  
@<TRIPOS>SUBSTRUCTURE
     1 JDQ         1

