### 
### Created by X-TOOL on Mon Aug  2 16:16:35 2021
### 

@<TRIPOS>MOLECULE
6qqz_ligand
   38    41     1     0     0
SMALL
GAST_HUCK


@<TRIPOS>ATOM
      1 C10       -23.0150   18.2460  -11.8530 C.ar      1 JEB        -0.0705
      2 C13       -23.4550   21.0130  -11.2370 C.ar      1 JEB         0.0693
      3 C17       -22.2390   23.6330   -9.5650 C.ar      1 JEB         0.0140
      4 C20       -20.7440   23.8380   -7.2680 C.ar      1 JEB         0.0042
      5 C21       -20.2640   24.4550   -8.4380 C.ar      1 JEB        -0.0404
      6 C22       -21.0410   24.3560   -9.6280 C.ar      1 JEB        -0.0378
      7 C24       -25.6360   20.8320  -10.6780 C.2       1 JEB        -0.0624
      8 N01       -17.7190   16.6470  -12.9230 N.pl3     1 JEB        -0.2931
      9 C02       -18.6290   17.7000  -12.6950 C.2       1 JEB         0.2018
     10 N03       -18.3830   18.9600  -12.5880 N.pl3     1 JEB        -0.1872
     11 N04       -19.5660   19.6130  -12.3360 N.2       1 JEB        -0.2235
     12 C05       -20.5480   18.7580  -12.3260 C.2       1 JEB         0.0479
     13 C06       -20.0280   17.5210  -12.4890 C.2       1 JEB         0.1315
     14 C07       -20.6730   16.1580  -12.5490 C.1       1 JEB         0.0465
     15 N08       -21.1160   15.1070  -12.6000 N.1       1 JEB        -0.3806
     16 C09       -21.9620   19.1960  -11.9750 C.ar      1 JEB        -0.0268
     17 C11       -24.2980   18.6900  -11.4360 C.ar      1 JEB        -0.0740
     18 C12       -24.5140   20.0770  -11.1230 C.ar      1 JEB        -0.0266
     19 C14       -22.1510   20.5730  -11.6410 C.ar      1 JEB        -0.0346
     20 N15       -23.9310   22.2580  -10.8710 N.pl3     1 JEB        -0.2526
     21 C16       -23.1250   23.5130  -10.8580 C.3       1 JEB         0.0916
     22 C18       -22.6500   23.0450   -8.3230 C.ar      1 JEB         0.0151
     23 N19       -21.9000   23.1730   -7.2470 N.ar      1 JEB        -0.3043
     24 C23       -25.2450   22.1910  -10.5390 C.2       1 JEB         0.0274
     25 H1        -22.8403   17.1995  -12.0750 H         1 JEB         0.0523
     26 H2        -20.1580   23.9050   -6.3585 H         1 JEB         0.0767
     27 H3        -19.3235   24.9939   -8.4340 H         1 JEB         0.0693
     28 H4        -20.7163   24.8240  -10.5503 H         1 JEB         0.0679
     29 H5        -26.6295   20.4338  -10.4773 H         1 JEB         0.0292
     30 H6        -18.0593   15.6769  -12.9866 H         1 JEB         0.1876
     31 H7        -16.7141   16.8480  -13.0259 H         1 JEB         0.1876
     32 H8        -17.4572   19.4028  -12.6763 H         1 JEB         0.2579
     33 H9        -25.1153   17.9827  -11.3536 H         1 JEB         0.0539
     34 H10       -21.3239   21.2719  -11.6921 H         1 JEB         0.0552
     35 H11       -22.4681   23.5218  -11.7403 H         1 JEB         0.0782
     36 H12       -23.8084   24.3739  -10.9010 H         1 JEB         0.0782
     37 H13       -23.5814   22.4930   -8.2692 H         1 JEB         0.0766
     38 H14       -25.8784   23.0198  -10.2261 H         1 JEB         0.0944
@<TRIPOS>BOND
     1   16    1 ar 
     2   17    1 ar 
     3    2   18 ar 
     4    2   19 ar 
     5   20    2 1  
     6    3    6 ar 
     7   21    3 1  
     8    3   22 ar 
     9    5    4 ar 
    10    4   23 ar 
    11    6    5 ar 
    12   18    7 1  
    13    7   24 2  
    14    9    8 1  
    15    9   10 1  
    16   13    9 2  
    17   11   10 1  
    18   12   11 2  
    19   12   13 1  
    20   16   12 1  
    21   13   14 1  
    22   14   15 3  
    23   19   16 ar 
    24   18   17 ar 
    25   20   21 1  
    26   20   24 1  
    27   22   23 ar 
    28    1   25 1  
    29    4   26 1  
    30    5   27 1  
    31    6   28 1  
    32    7   29 1  
    33    8   30 1  
    34    8   31 1  
    35   10   32 1  
    36   17   33 1  
    37   19   34 1  
    38   21   35 1  
    39   21   36 1  
    40   22   37 1  
    41   24   38 1  
@<TRIPOS>SUBSTRUCTURE
     1 JEB         1

