### 
### Created by X-TOOL on Mon Aug  2 16:16:35 2021
### 

@<TRIPOS>MOLECULE
6qr0_ligand
   38    41     1     0     0
SMALL
GAST_HUCK


@<TRIPOS>ATOM
      1 C10       -23.0700   18.0910  -11.7820 C.ar      1 JFB        -0.0705
      2 C13       -23.5230   20.8060  -11.1950 C.ar      1 JFB         0.0694
      3 C17       -22.3640   23.4360   -9.6060 C.ar      1 JFB         0.0059
      4 C21       -20.4710   24.3630   -8.4560 C.ar      1 JFB         0.0031
      5 C22       -21.2130   24.2360   -9.6070 C.ar      1 JFB        -0.0299
      6 C24       -25.7050   20.6750  -10.6100 C.2       1 JFB        -0.0624
      7 N01       -17.7530   16.5030  -12.8660 N.pl3     1 JFB        -0.2931
      8 C02       -18.7290   17.5330  -12.6270 C.2       1 JFB         0.2018
      9 N03       -18.4920   18.8350  -12.5390 N.pl3     1 JFB        -0.1872
     10 N04       -19.6960   19.4810  -12.2930 N.2       1 JFB        -0.2235
     11 C05       -20.6540   18.6190  -12.2790 C.2       1 JFB         0.0479
     12 C06       -20.0940   17.3270  -12.4350 C.2       1 JFB         0.1315
     13 C07       -20.7350   15.9920  -12.4820 C.1       1 JFB         0.0465
     14 N08       -21.1690   14.9830  -12.5290 N.1       1 JFB        -0.3806
     15 C09       -22.0670   19.0260  -11.9340 C.ar      1 JFB        -0.0268
     16 C11       -24.3340   18.5060  -11.3600 C.ar      1 JFB        -0.0740
     17 C12       -24.5500   19.8960  -11.0750 C.ar      1 JFB        -0.0265
     18 C14       -22.2600   20.3880  -11.6130 C.ar      1 JFB        -0.0346
     19 N15       -23.9900   22.0560  -10.8560 N.pl3     1 JFB        -0.2518
     20 C16       -23.2060   23.2920  -10.8700 C.3       1 JFB         0.0926
     21 C18       -22.7290   22.7900   -8.3620 C.ar      1 JFB        -0.0299
     22 C19       -21.9190   22.9730   -7.2310 C.ar      1 JFB         0.0031
     23 N20       -20.8610   23.7160   -7.2990 N.ar      1 JFB        -0.3066
     24 C23       -25.3100   21.9770  -10.5060 C.2       1 JFB         0.0275
     25 H1        -22.8782   17.0442  -11.9883 H         1 JFB         0.0523
     26 H2        -19.5755   24.9739   -8.4565 H         1 JFB         0.0803
     27 H3        -20.9092   24.7521  -10.5106 H         1 JFB         0.0652
     28 H4        -26.6970   20.2843  -10.3883 H         1 JFB         0.0292
     29 H5        -18.0465   15.5170  -12.9160 H         1 JFB         0.1876
     30 H6        -16.7608   16.7517  -12.9870 H         1 JFB         0.1876
     31 H7        -17.5726   19.2889  -12.6364 H         1 JFB         0.2579
     32 H8        -25.1400   17.7897  -11.2492 H         1 JFB         0.0539
     33 H9        -21.4418   21.0949  -11.6901 H         1 JFB         0.0552
     34 H10       -22.5387   23.2818  -11.7444 H         1 JFB         0.0793
     35 H11       -23.8917   24.1491  -10.9420 H         1 JFB         0.0793
     36 H12       -23.6179   22.1722   -8.3054 H         1 JFB         0.0652
     37 H13       -22.1802   22.4902   -6.2963 H         1 JFB         0.0803
     38 H14       -25.9385   22.8110  -10.1970 H         1 JFB         0.0944
@<TRIPOS>BOND
     1   15    1 ar 
     2   16    1 ar 
     3    2   17 ar 
     4    2   18 ar 
     5   19    2 1  
     6    3    5 ar 
     7   20    3 1  
     8    3   21 ar 
     9    5    4 ar 
    10    4   23 ar 
    11   17    6 1  
    12    6   24 2  
    13    8    7 1  
    14    8    9 1  
    15   12    8 2  
    16   10    9 1  
    17   11   10 2  
    18   11   12 1  
    19   15   11 1  
    20   12   13 1  
    21   13   14 3  
    22   18   15 ar 
    23   17   16 ar 
    24   19   20 1  
    25   19   24 1  
    26   21   22 ar 
    27   22   23 ar 
    28    1   25 1  
    29    4   26 1  
    30    5   27 1  
    31    6   28 1  
    32    7   29 1  
    33    7   30 1  
    34    9   31 1  
    35   16   32 1  
    36   18   33 1  
    37   20   34 1  
    38   20   35 1  
    39   21   36 1  
    40   22   37 1  
    41   24   38 1  
@<TRIPOS>SUBSTRUCTURE
     1 JFB         1

