### 
### Created by X-TOOL on Mon Aug  2 16:16:35 2021
### 

@<TRIPOS>MOLECULE
6qr1_ligand
   38    41     1     0     0
SMALL
GAST_HUCK


@<TRIPOS>ATOM
      1 C13       -22.0750   20.4910  -11.4950 C.ar      1 JFT        -0.0259
      2 C15       -20.4810   18.7490  -12.2910 C.2       1 JFT         0.1178
      3 C20       -19.9130   17.4570  -12.4650 C.2       1 JFT         0.1351
      4 C21       -20.5610   16.0950  -12.5090 C.1       1 JFT         0.0603
      5 C24       -24.0600   18.5560  -10.9970 C.ar      1 JFT        -0.0705
      6 C02       -25.3900   20.6480  -10.1350 C.2       1 JFT         0.0401
      7 C03       -25.0490   22.0290  -10.0720 C.2       1 JFT         0.0447
      8 C05       -23.0360   23.3650  -10.6650 C.3       1 JFT         0.0925
      9 C06       -22.1540   23.4950   -9.4240 C.ar      1 JFT         0.0141
     10 C07       -22.5670   22.9900   -8.1660 C.ar      1 JFT        -0.0378
     11 C08       -21.7070   23.1400   -7.0570 C.ar      1 JFT        -0.0404
     12 C09       -20.4650   23.7800   -7.2470 C.ar      1 JFT         0.0042
     13 C11       -20.8910   24.1210   -9.5000 C.ar      1 JFT         0.0151
     14 C12       -23.3190   20.8900  -10.9350 C.ar      1 JFT         0.0747
     15 C14       -21.8690   19.1420  -11.8370 C.ar      1 JFT         0.0096
     16 C18       -18.5810   17.6550  -12.6970 C.2       1 JFT         0.1189
     17 C23       -22.8330   18.1640  -11.5450 C.ar      1 JFT        -0.0633
     18 C25       -24.2900   19.9300  -10.6950 C.ar      1 JFT        -0.0093
     19 N04       -23.8040   22.1430  -10.5510 N.pl3     1 JFT        -0.2489
     20 N10       -20.1100   24.2410   -8.4400 N.ar      1 JFT        -0.3043
     21 N16       -19.4630   19.6420  -12.2990 N.pl3     1 JFT        -0.2184
     22 N17       -18.3280   18.9700  -12.5960 N.2       1 JFT        -0.2115
     23 N19       -17.6110   16.6110  -12.9900 N.pl3     1 JFT        -0.3310
     24 N22       -20.9960   15.0550  -12.5520 N.1       1 JFT        -0.3683
     25 CL1       -26.8440   19.8720   -9.6340 Cl        1 JFT        -0.1047
     26 H1        -21.2904   21.2211  -11.6574 H         1 JFT         0.0594
     27 H2        -24.8309   17.8189  -10.8034 H         1 JFT         0.0546
     28 H3        -25.6797   22.8372   -9.7047 H         1 JFT         0.0981
     29 H4        -22.4066   23.3259  -11.5662 H         1 JFT         0.0784
     30 H5        -23.7162   24.2270  -10.7299 H         1 JFT         0.0784
     31 H6        -23.5264   22.4972   -8.0574 H         1 JFT         0.0679
     32 H7        -21.9953   22.7708   -6.0794 H         1 JFT         0.0693
     33 H8        -19.7904   23.8972   -6.4066 H         1 JFT         0.0767
     34 H9        -20.5527   24.5135  -10.4522 H         1 JFT         0.0766
     35 H10       -22.6295   17.1176  -11.7416 H         1 JFT         0.0549
     36 H11       -19.5396   20.6520  -12.1123 H         1 JFT         0.2512
     37 H12       -16.6237   16.8560  -13.1517 H         1 JFT         0.1709
     38 H13       -17.9116   15.6269  -13.0357 H         1 JFT         0.1709
@<TRIPOS>BOND
     1   14    1 ar 
     2    1   15 ar 
     3    2    3 2  
     4   15    2 1  
     5    2   21 1  
     6    3    4 1  
     7    3   16 1  
     8    4   24 3  
     9    5   17 ar 
    10   18    5 ar 
    11    6    7 2  
    12   18    6 1  
    13    6   25 1  
    14    7   19 1  
    15    8    9 1  
    16   19    8 1  
    17    9   10 ar 
    18    9   13 ar 
    19   10   11 ar 
    20   11   12 ar 
    21   20   12 ar 
    22   13   20 ar 
    23   14   18 ar 
    24   14   19 1  
    25   15   17 ar 
    26   16   22 2  
    27   16   23 1  
    28   21   22 1  
    29    1   26 1  
    30    5   27 1  
    31    7   28 1  
    32    8   29 1  
    33    8   30 1  
    34   10   31 1  
    35   11   32 1  
    36   12   33 1  
    37   13   34 1  
    38   17   35 1  
    39   21   36 1  
    40   23   37 1  
    41   23   38 1  
@<TRIPOS>SUBSTRUCTURE
     1 JFT         1

