### 
### Created by X-TOOL on Mon Aug  2 16:16:36 2021
### 

@<TRIPOS>MOLECULE
6qr2_ligand
   39    42     1     0     0
SMALL
GAST_HUCK


@<TRIPOS>ATOM
      1 C10       -25.3390   22.0570  -10.4380 C.2       1 JQB         0.0269
      2 C13       -23.5780   20.8630  -11.1420 C.ar      1 JQB         0.0687
      3 C15       -22.1520   19.0510  -11.9050 C.ar      1 JQB        -0.0268
      4 C17       -24.4750   18.5620  -11.4040 C.ar      1 JQB        -0.0740
      5 C20       -20.8980   15.9550  -12.5330 C.1       1 JQB         0.0465
      6 C22       -18.8820   17.4750  -12.6110 C.2       1 JQB         0.2018
      7 O01       -21.6940   25.6000  -10.1060 O.2       1 JQB        -0.4200
      8 C02       -21.8270   24.6210   -9.0820 C.2       1 JQB         0.2070
      9 N03       -21.2500   24.8160   -7.9350 N.am      1 JQB        -0.2281
     10 C04       -21.3520   23.9200   -6.9490 C.2       1 JQB         0.0514
     11 C05       -22.0820   22.7290   -7.1140 C.2       1 JQB        -0.0551
     12 C06       -22.7160   22.4780   -8.3280 C.2       1 JQB        -0.0757
     13 C07       -22.5800   23.4650   -9.3530 C.2       1 JQB         0.0385
     14 C08       -23.2150   23.3050  -10.6960 C.3       1 JQB         0.0817
     15 N09       -24.0330   22.1030  -10.7540 N.pl3     1 JQB        -0.2569
     16 C11       -25.7760   20.7180  -10.6210 C.2       1 JQB        -0.0624
     17 C12       -24.6610   19.9500  -11.0670 C.ar      1 JQB        -0.0266
     18 C14       -22.2990   20.4110  -11.5460 C.ar      1 JQB        -0.0347
     19 C16       -23.2290   18.1130  -11.8170 C.ar      1 JQB        -0.0705
     20 C18       -20.7660   18.5890  -12.2440 C.2       1 JQB         0.0479
     21 C19       -20.2490   17.3130  -12.4380 C.2       1 JQB         0.1315
     22 N21       -21.3450   14.9050  -12.6180 N.1       1 JQB        -0.3806
     23 N23       -18.5940   18.8060  -12.4910 N.pl3     1 JQB        -0.1872
     24 N24       -19.7290   19.4710  -12.2450 N.2       1 JQB        -0.2235
     25 N25       -17.9130   16.4440  -12.8660 N.pl3     1 JQB        -0.2931
     26 H1        -25.9502   22.8937  -10.1029 H         1 JQB         0.0944
     27 H2        -25.3065   17.8700  -11.3351 H         1 JQB         0.0539
     28 H3        -20.7202   25.6511   -7.7872 H         1 JQB         0.2531
     29 H4        -20.8596   24.1159   -5.9976 H         1 JQB         0.1127
     30 H5        -22.1507   22.0095   -6.2994 H         1 JQB         0.0326
     31 H6        -23.2915   21.5677   -8.4898 H         1 JQB         0.0520
     32 H7        -22.4262   23.2388  -11.4598 H         1 JQB         0.0723
     33 H8        -23.8495   24.1803  -10.8990 H         1 JQB         0.0723
     34 H9        -26.7846   20.3442  -10.4507 H         1 JQB         0.0292
     35 H10       -21.4543   21.0895  -11.5794 H         1 JQB         0.0552
     36 H11       -23.0741   17.0700  -12.0686 H         1 JQB         0.0523
     37 H12       -17.6580   19.2274  -12.5759 H         1 JQB         0.2579
     38 H13       -18.2140   15.4619  -12.9425 H         1 JQB         0.1876
     39 H14       -16.9178   16.6874  -12.9722 H         1 JQB         0.1876
@<TRIPOS>BOND
     1   15    1 1  
     2   16    1 2  
     3    2   15 1  
     4    2   17 ar 
     5   18    2 ar 
     6    3   18 ar 
     7    3   19 ar 
     8   20    3 1  
     9    4   17 ar 
    10   19    4 ar 
    11   21    5 1  
    12    5   22 3  
    13   21    6 2  
    14    6   23 1  
    15    6   25 1  
    16    8    7 2  
    17    8    9 am 
    18   13    8 1  
    19    9   10 am 
    20   11   10 2  
    21   12   11 1  
    22   13   12 2  
    23   14   13 1  
    24   15   14 1  
    25   17   16 1  
    26   20   21 1  
    27   20   24 2  
    28   23   24 1  
    29    1   26 1  
    30    4   27 1  
    31    9   28 1  
    32   10   29 1  
    33   11   30 1  
    34   12   31 1  
    35   14   32 1  
    36   14   33 1  
    37   16   34 1  
    38   18   35 1  
    39   19   36 1  
    40   23   37 1  
    41   25   38 1  
    42   25   39 1  
@<TRIPOS>SUBSTRUCTURE
     1 JQB         1

