### 
### Created by X-TOOL on Mon Aug  2 16:16:36 2021
### 

@<TRIPOS>MOLECULE
6qr3_ligand
   48    51     1     0     0
SMALL
GAST_HUCK


@<TRIPOS>ATOM
      1 C10       -23.4060   21.0110  -11.0170 C.ar      1 JE8         0.0671
      2 C13       -20.6540   18.7060  -12.1670 C.2       1 JE8         0.0479
      3 C15       -20.8450   16.0430  -12.3940 C.1       1 JE8         0.0465
      4 C17       -18.7960   17.5580  -12.5900 C.2       1 JE8         0.2018
      5 C21       -23.0840   18.2490  -11.5830 C.ar      1 JE8        -0.0705
      6 C22       -24.3210   18.7040  -11.1280 C.ar      1 JE8        -0.0740
      7 C24       -25.5980   20.9090  -10.3740 C.2       1 JE8        -0.0626
      8 C01       -22.2370   24.3320   -6.1460 C.3       1 JE8        -0.0431
      9 N02       -21.6530   24.0760   -7.1790 N.4       1 JE8         0.2333
     10 C03       -22.5940   23.7420   -8.2070 C.3       1 JE8        -0.0268
     11 C04       -20.7310   25.1340   -7.4850 C.3       1 JE8        -0.0321
     12 C05       -20.2130   25.1510   -8.9040 C.3       1 JE8        -0.0120
     13 C06       -21.1870   24.8170   -9.9070 C.3       1 JE8        -0.0381
     14 C07       -21.9700   23.6610   -9.5940 C.3       1 JE8         0.0258
     15 C08       -23.0300   23.4990  -10.7440 C.3       1 JE8         0.0595
     16 N09       -23.8470   22.2890  -10.6640 N.pl3     1 JE8        -0.2645
     17 C11       -22.1420   20.5460  -11.4730 C.ar      1 JE8        -0.0348
     18 C12       -22.0090   19.1740  -11.7780 C.ar      1 JE8        -0.0268
     19 C14       -20.1510   17.4190  -12.3430 C.2       1 JE8         0.1315
     20 N16       -21.2970   14.9830  -12.4450 N.1       1 JE8        -0.3806
     21 N18       -17.8550   16.5280  -12.8620 N.pl3     1 JE8        -0.2931
     22 N19       -18.4840   18.8650  -12.5070 N.pl3     1 JE8        -0.1872
     23 N20       -19.6200   19.5580  -12.2240 N.2       1 JE8        -0.2235
     24 C23       -24.4870   20.1070  -10.8490 C.ar      1 JE8        -0.0267
     25 C25       -25.1430   22.2520  -10.2950 C.2       1 JE8         0.0252
     26 H1        -22.9364   17.1950  -11.7890 H         1 JE8         0.0523
     27 H2        -25.1442   18.0130  -10.9866 H         1 JE8         0.0539
     28 H3        -26.5949   20.5487  -10.1245 H         1 JE8         0.0292
     29 H4        -22.9426   23.5209   -5.9131 H         1 JE8         0.0777
     30 H5        -22.7891   25.2764   -6.2612 H         1 JE8         0.0777
     31 H6        -21.5086   24.4305   -5.3277 H         1 JE8         0.0777
     32 H7        -21.0983   23.2493   -7.0211 H         1 JE8         0.2031
     33 H8        -23.3808   24.5106   -8.2229 H         1 JE8         0.0818
     34 H9        -23.0401   22.7654   -7.9677 H         1 JE8         0.0818
     35 H10       -19.8680   25.0381   -6.8097 H         1 JE8         0.0814
     36 H11       -21.2387   26.0916   -7.2975 H         1 JE8         0.0814
     37 H12       -19.3872   24.4278   -8.9752 H         1 JE8         0.0317
     38 H13       -19.8349   26.1616   -9.1178 H         1 JE8         0.0317
     39 H14       -20.6590   24.6314  -10.8540 H         1 JE8         0.0272
     40 H15       -21.8669   25.6732  -10.0279 H         1 JE8         0.0272
     41 H16       -21.3114   22.7801   -9.6047 H         1 JE8         0.0379
     42 H17       -22.4930   23.4855  -11.7039 H         1 JE8         0.0606
     43 H18       -23.7033   24.3683  -10.7127 H         1 JE8         0.0606
     44 H19       -21.3046   21.2254  -11.5833 H         1 JE8         0.0552
     45 H20       -16.8667   16.7646  -13.0301 H         1 JE8         0.1876
     46 H21       -18.1614   15.5450  -12.8910 H         1 JE8         0.1876
     47 H22       -17.5461   19.2707  -12.6357 H         1 JE8         0.2579
     48 H23       -25.7411   23.1086   -9.9877 H         1 JE8         0.0942
@<TRIPOS>BOND
     1   16    1 1  
     2    1   17 ar 
     3    1   24 ar 
     4   18    2 1  
     5    2   19 1  
     6    2   23 2  
     7   19    3 1  
     8    3   20 3  
     9   19    4 2  
    10    4   21 1  
    11    4   22 1  
    12    6    5 ar 
    13    5   18 ar 
    14   24    6 ar 
    15   24    7 1  
    16    7   25 2  
    17    9    8 1  
    18   10    9 1  
    19    9   11 1  
    20   14   10 1  
    21   12   11 1  
    22   13   12 1  
    23   14   13 1  
    24   15   14 1  
    25   15   16 1  
    26   16   25 1  
    27   17   18 ar 
    28   22   23 1  
    29    5   26 1  
    30    6   27 1  
    31    7   28 1  
    32    8   29 1  
    33    8   30 1  
    34    8   31 1  
    35    9   32 1  
    36   10   33 1  
    37   10   34 1  
    38   11   35 1  
    39   11   36 1  
    40   12   37 1  
    41   12   38 1  
    42   13   39 1  
    43   13   40 1  
    44   14   41 1  
    45   15   42 1  
    46   15   43 1  
    47   17   44 1  
    48   21   45 1  
    49   21   46 1  
    50   22   47 1  
    51   25   48 1  
@<TRIPOS>SUBSTRUCTURE
     1 JE8         1

