### 
### Created by X-TOOL on Mon Aug  2 16:16:36 2021
### 

@<TRIPOS>MOLECULE
6qr4_ligand
   48    51     1     0     0
SMALL
GAST_HUCK


@<TRIPOS>ATOM
      1 C10       -24.2950   18.6470  -11.2440 C.ar      1 JD8        -0.0740
      2 C13       -25.1750   22.1830  -10.4000 C.2       1 JD8         0.0254
      3 C15       -23.1040   23.4450  -10.8470 C.3       1 JD8         0.0944
      4 C17       -21.5210   22.8970   -8.9540 C.3       1 JD8        -0.0070
      5 C20       -21.6100   25.6390   -8.1990 C.3       1 JD8        -0.0318
      6 C22       -21.2470   25.4340  -10.3540 C.3       1 JD8        -0.0427
      7 C24       -20.7630   16.1110  -12.4590 C.1       1 JD8         0.0465
      8 N01       -17.7670   16.6310  -12.8920 N.pl3     1 JD8        -0.2931
      9 C02       -18.7520   17.6400  -12.6350 C.2       1 JD8         0.2018
     10 N03       -18.4690   18.9770  -12.5560 N.pl3     1 JD8        -0.1872
     11 N04       -19.6120   19.6350  -12.3130 N.2       1 JD8        -0.2235
     12 C05       -20.6240   18.7450  -12.2660 C.2       1 JD8         0.0479
     13 C06       -22.0410   19.1840  -11.8810 C.ar      1 JD8        -0.0268
     14 C07       -22.2140   20.5470  -11.5790 C.ar      1 JD8        -0.0348
     15 C08       -23.4770   20.9630  -11.1270 C.ar      1 JD8         0.0674
     16 C09       -24.5000   20.0480  -10.9590 C.ar      1 JD8        -0.0267
     17 C11       -23.0670   18.2250  -11.6760 C.ar      1 JD8        -0.0705
     18 C12       -25.5940   20.8140  -10.4890 C.2       1 JD8        -0.0626
     19 N14       -23.9260   22.2460  -10.7760 N.pl3     1 JD8        -0.2596
     20 C16       -22.5800   23.8690   -9.4740 C.3       1 JD8         0.0059
     21 C18       -21.0880   23.2330   -7.6250 C.3       1 JD8        -0.0431
     22 C19       -20.7430   24.6150   -7.4480 C.3       1 JD8        -0.0123
     23 N21       -22.1240   25.2300   -9.4770 N.4       1 JD8         0.2371
     24 C23       -20.1070   17.4630  -12.4170 C.2       1 JD8         0.1315
     25 N25       -21.1800   15.0670  -12.4990 N.1       1 JD8        -0.3806
     26 H1        -25.1048   17.9377  -11.1171 H         1 JD8         0.0539
     27 H2        -25.7898   23.0215  -10.0761 H         1 JD8         0.0942
     28 H3        -23.7080   24.2643  -11.2640 H         1 JD8         0.0658
     29 H4        -22.2469   23.2482  -11.5078 H         1 JD8         0.0658
     30 H5        -20.6522   22.9244   -9.6281 H         1 JD8         0.0321
     31 H6        -21.9451   21.8821   -8.9434 H         1 JD8         0.0321
     32 H7        -21.0004   26.5408   -8.3572 H         1 JD8         0.0814
     33 H8        -22.4686   25.8848   -7.5568 H         1 JD8         0.0814
     34 H9        -21.6319   25.1236  -11.3366 H         1 JD8         0.0778
     35 H10       -20.3451   24.8521  -10.1130 H         1 JD8         0.0778
     36 H11       -20.9965   26.5048  -10.3800 H         1 JD8         0.0778
     37 H12       -18.0448   15.6403  -12.9393 H         1 JD8         0.1876
     38 H13       -16.7814   16.8966  -13.0294 H         1 JD8         0.1876
     39 H14       -17.5381   19.4042  -12.6645 H         1 JD8         0.2579
     40 H15       -21.3992   21.2531  -11.6915 H         1 JD8         0.0552
     41 H16       -22.8805   17.1730  -11.8591 H         1 JD8         0.0523
     42 H17       -26.5820   20.4305  -10.2386 H         1 JD8         0.0292
     43 H18       -23.4287   23.8194   -8.7760 H         1 JD8         0.0878
     44 H19       -20.2037   22.6239   -7.3864 H         1 JD8         0.0269
     45 H20       -21.9011   22.9886   -6.9256 H         1 JD8         0.0269
     46 H21       -20.8122   24.8420   -6.3739 H         1 JD8         0.0317
     47 H22       -19.7039   24.7460   -7.7843 H         1 JD8         0.0317
     48 H23       -22.9190   25.8114   -9.6915 H         1 JD8         0.2034
@<TRIPOS>BOND
     1   16    1 ar 
     2    1   17 ar 
     3    2   18 2  
     4   19    2 1  
     5    3   19 1  
     6   20    3 1  
     7   20    4 1  
     8    4   21 1  
     9    5   22 1  
    10   23    5 1  
    11   23    6 1  
    12   24    7 1  
    13    7   25 3  
    14    9    8 1  
    15    9   10 1  
    16   24    9 2  
    17   11   10 1  
    18   12   11 2  
    19   13   12 1  
    20   12   24 1  
    21   14   13 ar 
    22   13   17 ar 
    23   15   14 ar 
    24   15   16 ar 
    25   19   15 1  
    26   16   18 1  
    27   20   23 1  
    28   21   22 1  
    29    1   26 1  
    30    2   27 1  
    31    3   28 1  
    32    3   29 1  
    33    4   30 1  
    34    4   31 1  
    35    5   32 1  
    36    5   33 1  
    37    6   34 1  
    38    6   35 1  
    39    6   36 1  
    40    8   37 1  
    41    8   38 1  
    42   10   39 1  
    43   14   40 1  
    44   17   41 1  
    45   18   42 1  
    46   20   43 1  
    47   21   44 1  
    48   21   45 1  
    49   22   46 1  
    50   22   47 1  
    51   23   48 1  
@<TRIPOS>SUBSTRUCTURE
     1 JD8         1

