### 
### Created by X-TOOL on Mon Aug  2 16:16:36 2021
### 

@<TRIPOS>MOLECULE
6qr7_ligand
   58    62     1     0     0
SMALL
GAST_HUCK


@<TRIPOS>ATOM
      1 C10       -24.3980  -18.8600   11.5010 C.ar      1 JEK        -0.0740
      2 C13       -25.3450  -22.3570   10.6650 C.2       1 JEK         0.0271
      3 C15       -23.2070  -23.6170   11.0130 C.3       1 JEK         0.0824
      4 C17       -22.8550  -23.4750    8.4860 C.ar      1 JEK        -0.0641
      5 C20       -19.8740  -24.6550    6.2290 C.3       1 JEK        -0.0011
      6 C22       -19.3470  -26.8510    6.3790 C.3       1 JEK        -0.0306
      7 C24       -19.4540  -27.9840    4.2150 C.3       1 JEK        -0.0434
      8 C26       -20.5470  -25.7910    4.4590 C.3       1 JEK        -0.0306
      9 C28       -21.1370  -24.4530    9.8780 C.ar      1 JEK        -0.0641
     10 N01       -17.8090  -16.8440   12.9900 N.pl3     1 JEK        -0.2931
     11 C02       -18.7190  -17.8340   12.7410 C.2       1 JEK         0.2018
     12 N03       -18.4570  -19.1700   12.6360 N.pl3     1 JEK        -0.1872
     13 N04       -19.6290  -19.7970   12.4040 N.2       1 JEK        -0.2235
     14 C05       -20.6450  -18.9220   12.3890 C.2       1 JEK         0.0479
     15 C06       -22.0810  -19.3420   12.0440 C.ar      1 JEK        -0.0268
     16 C07       -22.2860  -20.6850   11.7320 C.ar      1 JEK        -0.0346
     17 C08       -23.5800  -21.1200   11.3300 C.ar      1 JEK         0.0690
     18 C09       -24.6160  -20.2220   11.2120 C.ar      1 JEK        -0.0266
     19 C11       -23.1170  -18.4220   11.9030 C.ar      1 JEK        -0.0705
     20 C12       -25.7690  -21.0180   10.7820 C.2       1 JEK        -0.0624
     21 N14       -24.0460  -22.3990   10.9770 N.pl3     1 JEK        -0.2547
     22 C16       -22.3890  -23.8390    9.7450 C.ar      1 JEK        -0.0208
     23 C18       -22.0610  -23.7370    7.3490 C.ar      1 JEK        -0.0617
     24 C19       -20.7790  -24.3560    7.4890 C.ar      1 JEK        -0.0053
     25 N21       -20.1390  -25.7480    5.8240 N.4       1 JEK         0.2463
     26 C23       -18.6590  -27.7590    5.3720 C.3       1 JEK        -0.0123
     27 C25       -19.7420  -26.7140    3.5600 C.3       1 JEK        -0.0123
     28 C27       -20.3350  -24.7110    8.7250 C.ar      1 JEK        -0.0617
     29 C29       -20.0960  -17.6660   12.5640 C.2       1 JEK         0.1315
     30 C30       -20.7980  -16.2640   12.6260 C.1       1 JEK         0.0465
     31 N31       -21.2690  -15.2000   12.6770 N.1       1 JEK        -0.3806
     32 H1        -25.2123  -18.1497   11.4149 H         1 JEK         0.0539
     33 H2        -25.9639  -23.2042   10.3732 H         1 JEK         0.0944
     34 H3        -23.8645  -24.4868   11.1582 H         1 JEK         0.0753
     35 H4        -22.5136  -23.5355   11.8631 H         1 JEK         0.0753
     36 H5        -23.8205  -22.9939    8.3790 H         1 JEK         0.0541
     37 H6        -18.8128  -24.6124    6.5155 H         1 JEK         0.0967
     38 H7        -20.0722  -23.9101    5.4442 H         1 JEK         0.0967
     39 H8        -20.0195  -27.4738    6.9871 H         1 JEK         0.0814
     40 H9        -18.5693  -26.4145    7.0228 H         1 JEK         0.0814
     41 H10       -20.3982  -28.4659    4.5086 H         1 JEK         0.0269
     42 H11       -18.9091  -28.6386    3.5190 H         1 JEK         0.0269
     43 H12       -20.4718  -24.7721    4.0514 H         1 JEK         0.0814
     44 H13       -21.5959  -26.1211    4.4299 H         1 JEK         0.0814
     45 H14       -20.7753  -24.7336   10.8606 H         1 JEK         0.0541
     46 H15       -18.1182  -15.8633   13.0490 H         1 JEK         0.1876
     47 H16       -16.8145  -17.0791   13.1186 H         1 JEK         0.1876
     48 H17       -17.5330  -19.6176   12.7188 H         1 JEK         0.2579
     49 H18       -21.4667  -21.3920   11.7950 H         1 JEK         0.0552
     50 H19       -22.9403  -17.3711   12.1016 H         1 JEK         0.0523
     51 H20       -26.7726  -20.6425   10.5879 H         1 JEK         0.0292
     52 H21       -22.4247  -23.4676    6.3640 H         1 JEK         0.0542
     53 H22       -21.0209  -25.9157    6.2825 H         1 JEK         0.2047
     54 H23       -18.4520  -28.7267    5.8523 H         1 JEK         0.0317
     55 H24       -17.7116  -27.2921    5.0645 H         1 JEK         0.0317
     56 H25       -20.3160  -26.9079    2.6419 H         1 JEK         0.0317
     57 H26       -18.7926  -26.2221    3.3019 H         1 JEK         0.0317
     58 H27       -19.3694  -25.1912    8.8349 H         1 JEK         0.0542
@<TRIPOS>BOND
     1   18    1 ar 
     2    1   19 ar 
     3    2   20 2  
     4   21    2 1  
     5    3   21 1  
     6   22    3 1  
     7    4   22 ar 
     8   23    4 ar 
     9   24    5 1  
    10    5   25 1  
    11   25    6 1  
    12    6   26 1  
    13   26    7 1  
    14   27    7 1  
    15   25    8 1  
    16    8   27 1  
    17   22    9 ar 
    18    9   28 ar 
    19   11   10 1  
    20   11   12 1  
    21   29   11 2  
    22   13   12 1  
    23   14   13 2  
    24   15   14 1  
    25   14   29 1  
    26   16   15 ar 
    27   15   19 ar 
    28   17   16 ar 
    29   17   18 ar 
    30   21   17 1  
    31   18   20 1  
    32   23   24 ar 
    33   24   28 ar 
    34   29   30 1  
    35   30   31 3  
    36    1   32 1  
    37    2   33 1  
    38    3   34 1  
    39    3   35 1  
    40    4   36 1  
    41    5   37 1  
    42    5   38 1  
    43    6   39 1  
    44    6   40 1  
    45    7   41 1  
    46    7   42 1  
    47    8   43 1  
    48    8   44 1  
    49    9   45 1  
    50   10   46 1  
    51   10   47 1  
    52   12   48 1  
    53   16   49 1  
    54   19   50 1  
    55   20   51 1  
    56   23   52 1  
    57   25   53 1  
    58   26   54 1  
    59   26   55 1  
    60   27   56 1  
    61   27   57 1  
    62   28   58 1  
@<TRIPOS>SUBSTRUCTURE
     1 JEK         1

