### 
### Created by X-TOOL on Mon Aug  2 16:16:37 2021
### 

@<TRIPOS>MOLECULE
6qr9_ligand
   56    60     1     0     0
SMALL
GAST_HUCK


@<TRIPOS>ATOM
      1 C10       -24.6360  -18.6370   11.3560 C.ar      1 JEE        -0.0740
      2 C13       -25.7000  -22.0970   10.5280 C.2       1 JEE         0.0271
      3 C15       -23.6410  -23.4040   10.8720 C.3       1 JEE         0.0824
      4 C17       -23.3130  -23.5100    8.3380 C.ar      1 JEE        -0.0641
      5 C20       -20.3040  -24.5130    6.1450 C.3       1 JEE        -0.0009
      6 C22       -20.5530  -26.7330    6.5450 C.3       1 JEE        -0.0065
      7 C26       -18.9820  -25.9090    5.0280 C.3       1 JEE        -0.0065
      8 C28       -21.4840  -24.0960    9.8120 C.ar      1 JEE        -0.0641
      9 N01       -18.0520  -16.6830   12.9630 N.pl3     1 JEE        -0.2931
     10 C02       -19.0060  -17.7040   12.7020 C.2       1 JEE         0.2018
     11 N03       -18.7560  -19.0310   12.6600 N.pl3     1 JEE        -0.1872
     12 N04       -19.9130  -19.6700   12.3850 N.2       1 JEE        -0.2235
     13 C05       -20.9100  -18.7970   12.2780 C.2       1 JEE         0.0479
     14 C06       -22.3380  -19.1920   11.9040 C.ar      1 JEE        -0.0268
     15 C07       -22.5930  -20.5400   11.5850 C.ar      1 JEE        -0.0346
     16 C08       -23.9020  -20.9470   11.1910 C.ar      1 JEE         0.0690
     17 C09       -24.9080  -20.0130   11.0770 C.ar      1 JEE        -0.0266
     18 C11       -23.3480  -18.2320   11.7600 C.ar      1 JEE        -0.0705
     19 C12       -26.0720  -20.7600   10.6530 C.2       1 JEE        -0.0624
     20 N14       -24.4060  -22.1790   10.8410 N.pl3     1 JEE        -0.2547
     21 C16       -22.7930  -23.6540    9.6300 C.ar      1 JEE        -0.0208
     22 C18       -22.4990  -23.7810    7.2210 C.ar      1 JEE        -0.0617
     23 C19       -21.1830  -24.2170    7.3910 C.ar      1 JEE        -0.0053
     24 N21       -19.7470  -25.6720    6.1530 N.4       1 JEE         0.2495
     25 C23       -20.3690  -28.0360    5.7910 C.3       1 JEE         0.0878
     26 O24       -20.2960  -27.8940    4.4240 O.3       1 JEE        -0.3693
     27 C25       -19.7180  -26.7250    3.9810 C.3       1 JEE         0.0878
     28 C27       -20.6770  -24.3650    8.7020 C.ar      1 JEE        -0.0617
     29 C29       -20.3730  -17.5370   12.4500 C.2       1 JEE         0.1315
     30 C30       -21.0900  -16.1930   12.4120 C.1       1 JEE         0.0465
     31 N31       -21.6120  -15.1780   12.3860 N.1       1 JEE        -0.3806
     32 H1        -25.4255  -17.9009   11.2561 H         1 JEE         0.0539
     33 H2        -26.3458  -22.9217   10.2301 H         1 JEE         0.0944
     34 H3        -24.3425  -24.2439   10.9832 H         1 JEE         0.0753
     35 H4        -22.9708  -23.3681   11.7435 H         1 JEE         0.0753
     36 H5        -24.3394  -23.1908    8.1978 H         1 JEE         0.0541
     37 H6        -19.5125  -23.7509    6.0930 H         1 JEE         0.0967
     38 H7        -20.9400  -24.4428    5.2503 H         1 JEE         0.0967
     39 H8        -21.6005  -26.4205    6.4219 H         1 JEE         0.0837
     40 H9        -20.3519  -26.9307    7.6082 H         1 JEE         0.0837
     41 H10       -18.0757  -26.4559    5.3274 H         1 JEE         0.0837
     42 H11       -18.6979  -24.9428    4.5855 H         1 JEE         0.0837
     43 H12       -21.0915  -24.2312   10.8134 H         1 JEE         0.0541
     44 H13       -18.3443  -15.6954   12.9731 H         1 JEE         0.1876
     45 H14       -17.0684  -16.9308   13.1421 H         1 JEE         0.1876
     46 H15       -17.8406  -19.4781   12.8116 H         1 JEE         0.2579
     47 H16       -21.7930  -21.2694   11.6390 H         1 JEE         0.0552
     48 H17       -23.1406  -17.1865   11.9576 H         1 JEE         0.0523
     49 H18       -27.0632  -20.3501   10.4649 H         1 JEE         0.0292
     50 H19       -22.8971  -23.6501    6.2213 H         1 JEE         0.0542
     51 H20       -19.0704  -25.6067    6.8973 H         1 JEE         0.2049
     52 H21       -21.2205  -28.6921    6.0241 H         1 JEE         0.0613
     53 H22       -19.4375  -28.5066    6.1386 H         1 JEE         0.0613
     54 H23       -18.9994  -26.9837    3.1894 H         1 JEE         0.0613
     55 H24       -20.5148  -26.0936    3.5609 H         1 JEE         0.0613
     56 H25       -19.6534  -24.6902    8.8487 H         1 JEE         0.0542
@<TRIPOS>BOND
     1   17    1 ar 
     2    1   18 ar 
     3    2   19 2  
     4   20    2 1  
     5    3   20 1  
     6   21    3 1  
     7    4   21 ar 
     8   22    4 ar 
     9   23    5 1  
    10    5   24 1  
    11   24    6 1  
    12    6   25 1  
    13   24    7 1  
    14    7   27 1  
    15   21    8 ar 
    16    8   28 ar 
    17   10    9 1  
    18   10   11 1  
    19   29   10 2  
    20   12   11 1  
    21   13   12 2  
    22   14   13 1  
    23   13   29 1  
    24   15   14 ar 
    25   14   18 ar 
    26   16   15 ar 
    27   16   17 ar 
    28   20   16 1  
    29   17   19 1  
    30   22   23 ar 
    31   23   28 ar 
    32   25   26 1  
    33   26   27 1  
    34   29   30 1  
    35   30   31 3  
    36    1   32 1  
    37    2   33 1  
    38    3   34 1  
    39    3   35 1  
    40    4   36 1  
    41    5   37 1  
    42    5   38 1  
    43    6   39 1  
    44    6   40 1  
    45    7   41 1  
    46    7   42 1  
    47    8   43 1  
    48    9   44 1  
    49    9   45 1  
    50   11   46 1  
    51   15   47 1  
    52   18   48 1  
    53   19   49 1  
    54   22   50 1  
    55   24   51 1  
    56   25   52 1  
    57   25   53 1  
    58   27   54 1  
    59   27   55 1  
    60   28   56 1  
@<TRIPOS>SUBSTRUCTURE
     1 JEE         1

