### 
### Created by X-TOOL on Mon Aug  2 16:16:37 2021
### 

@<TRIPOS>MOLECULE
6qra_ligand
   57    61     1     0     0
SMALL
GAST_HUCK


@<TRIPOS>ATOM
      1 C10       -24.0860  -19.2050   11.7420 C.ar      1 JDK        -0.0745
      2 C13       -24.7170  -22.8140   11.1590 C.2       1 JDK         0.0267
      3 C15       -22.5470  -23.9280   11.5490 C.3       1 JDK         0.0823
      4 C17       -21.8500  -23.4820    9.0280 C.ar      1 JDK        -0.0641
      5 C20       -19.8150  -25.7100    6.6400 C.3       1 JDK        -0.0011
      6 C22       -18.2860  -25.4980    5.0840 C.3       1 JDK        -0.0306
      7 C24       -16.0100  -24.8630    5.8000 C.3       1 JDK        -0.0434
      8 C26       -17.8240  -24.9670    7.4470 C.3       1 JDK        -0.0306
      9 C28       -21.2370  -25.5350   10.2270 C.ar      1 JDK        -0.0641
     10 N01       -17.7710  -16.4380   12.7690 N.pl3     1 JDK        -0.3099
     11 C02       -18.6280  -17.5920   12.7270 C.2       1 JDK         0.1492
     12 N03       -18.2170  -18.8920   12.9540 N.pl3     1 JDK        -0.2070
     13 N04       -19.3250  -19.7310   12.8330 N.2       1 JDK        -0.2410
     14 C05       -20.3980  -18.9910   12.5720 C.2       1 JDK         0.0069
     15 C06       -21.7350  -19.5320   12.2780 C.ar      1 JDK        -0.0336
     16 C07       -21.8150  -20.9170   12.0660 C.ar      1 JDK        -0.0361
     17 C08       -23.0830  -21.4520   11.7040 C.ar      1 JDK         0.0682
     18 C09       -24.1820  -20.6180   11.5510 C.ar      1 JDK        -0.0272
     19 C11       -22.8370  -18.6540   12.1010 C.ar      1 JDK        -0.0717
     20 C12       -25.2270  -21.4670   11.1890 C.2       1 JDK        -0.0630
     21 N14       -23.4630  -22.7680   11.4530 N.pl3     1 JDK        -0.2551
     22 C16       -21.8530  -24.3280   10.2450 C.ar      1 JDK        -0.0208
     23 C18       -21.2150  -23.9090    7.9060 C.ar      1 JDK        -0.0617
     24 C19       -20.5470  -25.1870    7.8950 C.ar      1 JDK        -0.0053
     25 N21       -18.7720  -25.0850    6.3530 N.4       1 JDK         0.2463
     26 C23       -16.7690  -25.6730    4.9140 C.3       1 JDK        -0.0123
     27 C25       -16.3520  -25.2100    7.1400 C.3       1 JDK        -0.0123
     28 C27       -20.5730  -25.9880    9.0480 C.ar      1 JDK        -0.0617
     29 C29       -20.0130  -17.6270   12.4440 C.2       1 JDK        -0.0314
     30 H1        -24.9546  -18.5693   11.6138 H         1 JDK         0.0538
     31 H2        -25.2893  -23.7115   10.9288 H         1 JDK         0.0940
     32 H3        -23.1296  -24.7918   11.9018 H         1 JDK         0.0753
     33 H4        -21.7682  -23.6849   12.2868 H         1 JDK         0.0753
     34 H5        -22.3546  -22.5226    9.0335 H         1 JDK         0.0541
     35 H6        -20.5041  -25.6400    5.7855 H         1 JDK         0.0967
     36 H7        -19.5487  -26.7635    6.8110 H         1 JDK         0.0967
     37 H8        -18.6130  -24.7481    4.3487 H         1 JDK         0.0814
     38 H9        -18.7546  -26.4661    4.8536 H         1 JDK         0.0814
     39 H10       -16.2404  -23.8023    5.6217 H         1 JDK         0.0269
     40 H11       -14.9367  -25.0379    5.6344 H         1 JDK         0.0269
     41 H12       -18.1221  -25.6915    8.2191 H         1 JDK         0.0814
     42 H13       -17.9114  -23.9466    7.8483 H         1 JDK         0.0814
     43 H14       -21.2488  -26.1596   11.1129 H         1 JDK         0.0541
     44 H15       -18.1591  -15.5014   12.5871 H         1 JDK         0.1782
     45 H16       -16.7691  -16.5480   12.9810 H         1 JDK         0.1782
     46 H17       -17.2563  -19.1905   13.1749 H         1 JDK         0.2511
     47 H18       -20.9448  -21.5544   12.1738 H         1 JDK         0.0544
     48 H19       -22.7217  -17.5850   12.2385 H         1 JDK         0.0518
     49 H20       -26.2496  -21.1649   10.9677 H         1 JDK         0.0290
     50 H21       -21.2103  -23.2882    7.0174 H         1 JDK         0.0542
     51 H22       -19.0729  -24.1347    6.2032 H         1 JDK         0.2047
     52 H23       -16.5000  -25.4080    3.8808 H         1 JDK         0.0317
     53 H24       -16.5155  -26.7271    5.1001 H         1 JDK         0.0317
     54 H25       -15.7435  -24.6044    7.8277 H         1 JDK         0.0317
     55 H26       -16.1303  -26.2761    7.2961 H         1 JDK         0.0317
     56 H27       -20.0857  -26.9563    9.0424 H         1 JDK         0.0542
     57 H28       -20.6522  -16.7850   12.1824 H         1 JDK         0.0171
@<TRIPOS>BOND
     1   18    1 ar 
     2    1   19 ar 
     3    2   20 2  
     4   21    2 1  
     5    3   21 1  
     6   22    3 1  
     7    4   22 ar 
     8   23    4 ar 
     9   24    5 1  
    10    5   25 1  
    11   25    6 1  
    12    6   26 1  
    13   26    7 1  
    14   27    7 1  
    15   25    8 1  
    16    8   27 1  
    17   22    9 ar 
    18    9   28 ar 
    19   11   10 1  
    20   11   12 1  
    21   29   11 2  
    22   13   12 1  
    23   14   13 2  
    24   15   14 1  
    25   14   29 1  
    26   16   15 ar 
    27   15   19 ar 
    28   17   16 ar 
    29   17   18 ar 
    30   21   17 1  
    31   18   20 1  
    32   23   24 ar 
    33   24   28 ar 
    34    1   30 1  
    35    2   31 1  
    36    3   32 1  
    37    3   33 1  
    38    4   34 1  
    39    5   35 1  
    40    5   36 1  
    41    6   37 1  
    42    6   38 1  
    43    7   39 1  
    44    7   40 1  
    45    8   41 1  
    46    8   42 1  
    47    9   43 1  
    48   10   44 1  
    49   10   45 1  
    50   12   46 1  
    51   16   47 1  
    52   19   48 1  
    53   20   49 1  
    54   23   50 1  
    55   25   51 1  
    56   26   52 1  
    57   26   53 1  
    58   27   54 1  
    59   27   55 1  
    60   28   56 1  
    61   29   57 1  
@<TRIPOS>SUBSTRUCTURE
     1 JDK         1

