### 
### Created by X-TOOL on Mon Aug  2 16:16:37 2021
### 

@<TRIPOS>MOLECULE
6qrc_ligand
   42    45     1     0     0
SMALL
GAST_HUCK


@<TRIPOS>ATOM
      1 C10       -24.4200  -20.1920   11.2350 C.ar      1 JFE        -0.0263
      2 C15       -22.1540  -23.4480    9.4270 C.ar      1 JFE        -0.0231
      3 C17       -20.7130  -24.5200    7.8260 C.ar      1 JFE        -0.0771
      4 C20       -22.4680  -22.4710    8.4770 C.ar      1 JFE        -0.0297
      5 C22       -23.3190  -20.6780    6.5060 C.3       1 JFE         0.0592
      6 C24       -25.4990  -21.0420   10.8210 C.2       1 JFE        -0.0622
      7 N01       -17.9640  -16.0900   12.6150 N.pl3     1 JFE        -0.3373
      8 C02       -18.8210  -17.1910   12.5210 C.2       1 JFE         0.0818
      9 N03       -18.4500  -18.4810   12.7070 N.2       1 JFE        -0.2235
     10 N04       -19.5300  -19.2790   12.5430 N.pl3     1 JFE        -0.2335
     11 C05       -20.5930  -18.5230   12.2920 C.2       1 JFE         0.0733
     12 C06       -20.1970  -17.1950   12.2280 C.2       1 JFE        -0.0231
     13 C07       -21.9720  -19.0820   11.9780 C.ar      1 JFE        -0.0062
     14 C08       -23.0890  -18.2500   11.9360 C.ar      1 JFE        -0.0681
     15 C09       -24.3250  -18.8100   11.5620 C.ar      1 JFE        -0.0737
     16 C11       -23.2900  -21.0040   11.2680 C.ar      1 JFE         0.0694
     17 C12       -22.0490  -20.4330   11.6330 C.ar      1 JFE        -0.0323
     18 N13       -23.6580  -22.2680   10.9140 N.pl3     1 JFE        -0.2538
     19 C14       -22.7760  -23.3880   10.8240 C.3       1 JFE         0.0831
     20 C16       -21.2810  -24.4690    9.1100 C.ar      1 JFE        -0.0689
     21 C18       -21.0270  -23.5410    6.8740 C.ar      1 JFE        -0.0401
     22 C19       -21.8920  -22.5270    7.1850 C.ar      1 JFE         0.0841
     23 O21       -22.1910  -21.5360    6.2210 O.3       1 JFE        -0.3230
     24 C23       -24.9870  -22.3130   10.6420 C.2       1 JFE         0.0275
     25 H1        -20.0284  -25.3207    7.5705 H         1 JFE         0.0572
     26 H2        -23.1531  -21.6700    8.7301 H         1 JFE         0.0479
     27 H3        -23.4464  -19.9555    5.6864 H         1 JFE         0.0577
     28 H4        -23.1398  -20.1372    7.4470 H         1 JFE         0.0577
     29 H5        -24.2291  -21.2884    6.6014 H         1 JFE         0.0577
     30 H6        -26.5349  -20.7400   10.6742 H         1 JFE         0.0293
     31 H7        -18.3279  -15.1392   12.4584 H         1 JFE         0.1678
     32 H8        -16.9688  -16.2298   12.8408 H         1 JFE         0.1678
     33 H9        -19.5283  -20.3072   12.6031 H         1 JFE         0.2442
     34 H10       -20.8222  -16.3334   11.9984 H         1 JFE         0.0316
     35 H11       -23.0081  -17.1981   12.1851 H         1 JFE         0.0525
     36 H12       -25.2098  -18.1850   11.5228 H         1 JFE         0.0540
     37 H13       -21.1548  -21.0457   11.6451 H         1 JFE         0.0554
     38 H14       -21.9785  -23.2858   11.5746 H         1 JFE         0.0765
     39 H15       -23.3404  -24.3131   11.0123 H         1 JFE         0.0765
     40 H16       -21.0355  -25.2258    9.8462 H         1 JFE         0.0465
     41 H17       -20.5826  -23.5870    5.8863 H         1 JFE         0.0486
     42 H18       -25.5497  -23.1940   10.3370 H         1 JFE         0.0945
@<TRIPOS>BOND
     1    6    1 1  
     2    1   15 ar 
     3   16    1 ar 
     4    4    2 ar 
     5    2   19 1  
     6    2   20 ar 
     7    3   20 ar 
     8   21    3 ar 
     9   22    4 ar 
    10   23    5 1  
    11   24    6 2  
    12    8    7 1  
    13    8    9 2  
    14   12    8 1  
    15   10    9 1  
    16   11   10 1  
    17   11   12 2  
    18   13   11 1  
    19   13   14 ar 
    20   17   13 ar 
    21   15   14 ar 
    22   16   17 ar 
    23   18   16 1  
    24   19   18 1  
    25   18   24 1  
    26   22   21 ar 
    27   22   23 1  
    28    3   25 1  
    29    4   26 1  
    30    5   27 1  
    31    5   28 1  
    32    5   29 1  
    33    6   30 1  
    34    7   31 1  
    35    7   32 1  
    36   10   33 1  
    37   12   34 1  
    38   14   35 1  
    39   15   36 1  
    40   17   37 1  
    41   19   38 1  
    42   19   39 1  
    43   20   40 1  
    44   21   41 1  
    45   24   42 1  
@<TRIPOS>SUBSTRUCTURE
     1 JFE         1

