### 
### Created by X-TOOL on Mon Aug  2 16:16:37 2021
### 

@<TRIPOS>MOLECULE
6qrd_ligand
   67    71     1     0     0
SMALL
GAST_HUCK


@<TRIPOS>ATOM
      1 C10       -22.2830  -20.4060   11.5810 C.ar      1 JEH        -0.0346
      2 C13       -24.3840  -18.5500   11.3170 C.ar      1 JEH        -0.0740
      3 C15       -25.7410  -20.7050   10.5870 C.2       1 JEH        -0.0624
      4 C20       -22.5920  -22.9330    8.3890 C.ar      1 JEH        -0.0641
      5 C21       -21.7080  -23.1630    7.3130 C.ar      1 JEH        -0.0617
      6 C22       -20.5950  -23.9990    7.4830 C.ar      1 JEH        -0.0053
      7 C26       -16.8870  -24.3360    6.8870 C.3       1 JEH         0.0097
      8 C28       -16.5810  -22.7540    5.3560 C.3       1 JEH        -0.0262
      9 N01       -17.8080  -16.4960   12.9260 N.pl3     1 JEH        -0.2931
     10 C02       -18.7500  -17.5320   12.6400 C.2       1 JEH         0.2018
     11 N03       -18.4840  -18.8600   12.5040 N.pl3     1 JEH        -0.1872
     12 N04       -19.6520  -19.4910   12.2440 N.2       1 JEH        -0.2235
     13 C05       -20.6620  -18.6230   12.2520 C.2       1 JEH         0.0479
     14 C06       -20.1220  -17.3610   12.4620 C.2       1 JEH         0.1315
     15 C07       -20.7970  -16.0090   12.5530 C.1       1 JEH         0.0465
     16 N08       -21.2710  -14.9760   12.6340 N.1       1 JEH        -0.3806
     17 C09       -22.0860  -19.0500   11.8940 C.ar      1 JEH        -0.0268
     18 C11       -23.5750  -20.8480   11.1610 C.ar      1 JEH         0.0690
     19 C12       -24.6040  -19.9300   11.0330 C.ar      1 JEH        -0.0266
     20 C14       -23.1110  -18.1140   11.7280 C.ar      1 JEH        -0.0705
     21 C16       -25.3410  -22.0420   10.4840 C.2       1 JEH         0.0271
     22 N17       -24.0500  -22.1070   10.8220 N.pl3     1 JEH        -0.2547
     23 C18       -23.2770  -23.3340   10.8530 C.3       1 JEH         0.0824
     24 C19       -22.3520  -23.5400    9.6300 C.ar      1 JEH        -0.0208
     25 C23       -19.6170  -24.2190    6.2680 C.3       1 JEH        -0.0006
     26 N24       -18.9560  -25.3340    6.1990 N.4       1 JEH         0.2537
     27 C25       -17.8990  -25.4540    7.0430 C.3       1 JEH         0.0108
     28 N27       -16.5590  -24.0300    5.6060 N.4       1 JEH         0.2445
     29 C29       -15.4560  -22.4170    4.3880 C.3       1 JEH        -0.0218
     30 C30       -16.5570  -21.8360    6.5810 C.3       1 JEH        -0.0218
     31 C31       -17.2160  -24.6940    4.6090 C.3       1 JEH         0.0097
     32 C32       -18.4830  -25.4880    4.9370 C.3       1 JEH         0.0108
     33 C33       -20.3730  -24.5890    8.7370 C.ar      1 JEH        -0.0617
     34 C34       -21.2480  -24.3640    9.8100 C.ar      1 JEH        -0.0641
     35 H1        -21.4622  -21.1099   11.6576 H         1 JEH         0.0552
     36 H2        -25.1957  -17.8385   11.2165 H         1 JEH         0.0539
     37 H3        -26.7346  -20.3160   10.3694 H         1 JEH         0.0292
     38 H4        -23.4539  -22.2890    8.2564 H         1 JEH         0.0541
     39 H5        -21.8897  -22.6926    6.3535 H         1 JEH         0.0542
     40 H6        -15.9674  -24.6332    7.4123 H         1 JEH         0.0868
     41 H7        -17.3023  -23.4325    7.3573 H         1 JEH         0.0868
     42 H8        -17.5315  -22.5514    4.8407 H         1 JEH         0.0846
     43 H9        -18.1253  -15.5194   13.0070 H         1 JEH         0.1876
     44 H10       -16.8118  -16.7259   13.0512 H         1 JEH         0.1876
     45 H11       -17.5586  -19.3050   12.5847 H         1 JEH         0.2579
     46 H12       -22.9267  -17.0621   11.9142 H         1 JEH         0.0523
     47 H13       -25.9690  -22.8790   10.1825 H         1 JEH         0.0944
     48 H14       -23.9777  -24.1806   10.9003 H         1 JEH         0.0753
     49 H15       -22.6524  -23.3239   11.7584 H         1 JEH         0.0753
     50 H16       -18.8781  -23.4046    6.2943 H         1 JEH         0.0967
     51 H17       -20.2172  -24.1400    5.3496 H         1 JEH         0.0967
     52 H18       -19.6007  -26.0810    6.4051 H         1 JEH         0.2051
     53 H19       -18.2736  -25.4461    8.0772 H         1 JEH         0.0868
     54 H20       -17.3970  -26.4119    6.8421 H         1 JEH         0.0868
     55 H21       -15.5953  -24.3129    5.5206 H         1 JEH         0.2040
     56 H22       -15.4689  -21.3385    4.1721 H         1 JEH         0.0284
     57 H23       -15.5957  -22.9797    3.4532 H         1 JEH         0.0284
     58 H24       -14.4903  -22.6891    4.8390 H         1 JEH         0.0284
     59 H25       -16.5786  -20.7863    6.2530 H         1 JEH         0.0284
     60 H26       -15.6399  -22.0205    7.1596 H         1 JEH         0.0284
     61 H27       -17.4353  -22.0415    7.2105 H         1 JEH         0.0284
     62 H28       -16.4987  -25.4037    4.1710 H         1 JEH         0.0868
     63 H29       -17.4957  -23.9432    3.8553 H         1 JEH         0.0868
     64 H30       -19.2716  -25.1724    4.2381 H         1 JEH         0.0868
     65 H31       -18.2636  -26.5551    4.7847 H         1 JEH         0.0868
     66 H32       -19.5102  -25.2298    8.8788 H         1 JEH         0.0542
     67 H33       -21.0643  -24.8292   10.7717 H         1 JEH         0.0541
@<TRIPOS>BOND
     1    1   17 ar 
     2   18    1 ar 
     3   19    2 ar 
     4    2   20 ar 
     5    3   19 1  
     6   21    3 2  
     7    5    4 ar 
     8    4   24 ar 
     9    6    5 ar 
    10   25    6 1  
    11    6   33 ar 
    12   27    7 1  
    13    7   28 1  
    14   28    8 1  
    15    8   29 1  
    16    8   30 1  
    17   10    9 1  
    18   10   11 1  
    19   14   10 2  
    20   12   11 1  
    21   13   12 2  
    22   13   14 1  
    23   17   13 1  
    24   14   15 1  
    25   15   16 3  
    26   17   20 ar 
    27   18   19 ar 
    28   22   18 1  
    29   22   21 1  
    30   23   22 1  
    31   24   23 1  
    32   24   34 ar 
    33   26   25 1  
    34   26   27 1  
    35   26   32 1  
    36   28   31 1  
    37   31   32 1  
    38   33   34 ar 
    39    1   35 1  
    40    2   36 1  
    41    3   37 1  
    42    4   38 1  
    43    5   39 1  
    44    7   40 1  
    45    7   41 1  
    46    8   42 1  
    47    9   43 1  
    48    9   44 1  
    49   11   45 1  
    50   20   46 1  
    51   21   47 1  
    52   23   48 1  
    53   23   49 1  
    54   25   50 1  
    55   25   51 1  
    56   26   52 1  
    57   27   53 1  
    58   27   54 1  
    59   28   55 1  
    60   29   56 1  
    61   29   57 1  
    62   29   58 1  
    63   30   59 1  
    64   30   60 1  
    65   30   61 1  
    66   31   62 1  
    67   31   63 1  
    68   32   64 1  
    69   32   65 1  
    70   33   66 1  
    71   34   67 1  
@<TRIPOS>SUBSTRUCTURE
     1 JEH         1

