### 
### Created by X-TOOL on Mon Aug  2 16:17:13 2021
### 

@<TRIPOS>MOLECULE
6qre_ligand
   29    30     1     0     0
SMALL
GAST_HUCK


@<TRIPOS>ATOM
      1 C10       -19.9330   16.6170  -12.9230 C.2       1 JCQ         0.0151
      2 N12       -17.7340   16.7540  -12.8750 N.pl3     1 JCQ        -0.2128
      3 C13       -18.2100   18.0310  -12.9000 C.2       1 JCQ         0.0740
      4 C15       -22.1540   21.5570  -10.7580 C.ar      1 JCQ        -0.0689
      5 C17       -23.1940   21.2590   -8.5830 C.ar      1 JCQ        -0.0401
      6 C01       -25.7320   18.6890   -8.8990 C.3       1 JCQ         0.0592
      7 O02       -24.8770   19.5630   -8.2410 O.3       1 JCQ        -0.3230
      8 C03       -23.9540   20.2470   -9.0870 C.ar      1 JCQ         0.0841
      9 C04       -23.8220   19.8630  -10.4380 C.ar      1 JCQ        -0.0298
     10 C05       -22.9170   20.5250  -11.2660 C.ar      1 JCQ        -0.0220
     11 C06       -22.7660   20.1060  -12.6940 C.3       1 JCQ         0.1068
     12 O07       -21.9560   18.9000  -12.7600 O.3       1 JCQ        -0.2688
     13 C08       -20.5710   19.1380  -12.9260 C.2       1 JCQ         0.2440
     14 C09       -19.5920   17.9550  -12.9180 C.2       1 JCQ         0.0770
     15 N11       -18.8080   15.9160  -12.9020 N.2       1 JCQ        -0.2141
     16 O14       -20.1500   20.2920  -13.0540 O.2       1 JCQ        -0.3723
     17 C16       -22.2840   21.9370   -9.4200 C.ar      1 JCQ        -0.0771
     18 H1        -20.9433   16.2110  -12.9409 H         1 JCQ         0.0692
     19 H2        -16.7434   16.4737  -12.8418 H         1 JCQ         0.2617
     20 H3        -17.6136   18.9421  -12.9049 H         1 JCQ         0.1095
     21 H4        -21.4508   22.0749  -11.4001 H         1 JCQ         0.0465
     22 H5        -23.2886   21.5424   -7.5410 H         1 JCQ         0.0486
     23 H6        -26.4019   18.2120   -8.1685 H         1 JCQ         0.0577
     24 H7        -25.1418   17.9168   -9.4140 H         1 JCQ         0.0577
     25 H8        -26.3297   19.2458   -9.6357 H         1 JCQ         0.0577
     26 H9        -24.4246   19.0528  -10.8323 H         1 JCQ         0.0479
     27 H10       -22.2749   20.9096  -13.2624 H         1 JCQ         0.0774
     28 H11       -23.7582   19.9058  -13.1247 H         1 JCQ         0.0774
     29 H12       -21.6866   22.7513   -9.0261 H         1 JCQ         0.0572
@<TRIPOS>BOND
     1   14    1 1  
     2    1   15 2  
     3    3    2 1  
     4    2   15 1  
     5   14    3 2  
     6   10    4 ar 
     7    4   17 ar 
     8    8    5 ar 
     9   17    5 ar 
    10    7    6 1  
    11    8    7 1  
    12    9    8 ar 
    13   10    9 ar 
    14   11   10 1  
    15   12   11 1  
    16   13   12 1  
    17   13   14 1  
    18   13   16 2  
    19    1   18 1  
    20    2   19 1  
    21    3   20 1  
    22    4   21 1  
    23    5   22 1  
    24    6   23 1  
    25    6   24 1  
    26    6   25 1  
    27    9   26 1  
    28   11   27 1  
    29   11   28 1  
    30   17   29 1  
@<TRIPOS>SUBSTRUCTURE
     1 JCQ         1

