### 
### Created by X-TOOL on Mon Aug  2 16:17:13 2021
### 

@<TRIPOS>MOLECULE
6qrf_ligand
   25    26     1     0     0
SMALL
GAST_HUCK


@<TRIPOS>ATOM
      1 C10       -23.0480   20.3940  -11.1730 C.ar      1 JF5        -0.0130
      2 C13       -23.3020   21.1520   -8.5180 C.ar      1 JF5        -0.0687
      3 C15       -23.8590   19.6620  -10.3140 C.ar      1 JF5        -0.0578
      4 O01       -20.2730   20.1820  -12.9720 O.2       1 JF5        -0.3723
      5 C02       -20.6830   19.0440  -12.8730 C.2       1 JF5         0.2440
      6 C03       -19.7220   17.8520  -12.8950 C.2       1 JF5         0.0770
      7 C04       -20.0910   16.5300  -12.9240 C.2       1 JF5         0.0151
      8 N05       -18.9710   15.8070  -12.9280 N.2       1 JF5        -0.2141
      9 N06       -17.8790   16.6140  -12.8820 N.pl3     1 JF5        -0.2128
     10 C07       -18.3300   17.8970  -12.8770 C.2       1 JF5         0.0740
     11 O08       -22.0700   18.7890  -12.7090 O.3       1 JF5        -0.2686
     12 C09       -22.8970   19.9700  -12.6340 C.3       1 JF5         0.1092
     13 C11       -22.3630   21.5080  -10.7050 C.ar      1 JF5        -0.0578
     14 C12       -22.4990   21.8830   -9.3780 C.ar      1 JF5        -0.0685
     15 C14       -23.9930   20.0390   -8.9850 C.ar      1 JF5        -0.0685
     16 H1        -23.3920   21.4480   -7.4791 H         1 JF5         0.0559
     17 H2        -24.3896   18.7921  -10.6839 H         1 JF5         0.0557
     18 H3        -21.1091   16.1438  -12.9406 H         1 JF5         0.0692
     19 H4        -16.8949   16.3111  -12.8558 H         1 JF5         0.2617
     20 H5        -17.7150   18.7956  -12.8617 H         1 JF5         0.1095
     21 H6        -22.4267   20.7839  -13.2053 H         1 JF5         0.0776
     22 H7        -23.8886   19.7507  -13.0566 H         1 JF5         0.0776
     23 H8        -21.7275   22.0791  -11.3721 H         1 JF5         0.0557
     24 H9        -21.9724   22.7560   -9.0097 H         1 JF5         0.0599
     25 H10       -24.6305   19.4711   -8.3170 H         1 JF5         0.0599
@<TRIPOS>BOND
     1    1    3 ar 
     2   12    1 1  
     3    1   13 ar 
     4    2   14 ar 
     5   15    2 ar 
     6    3   15 ar 
     7    5    4 2  
     8    5    6 1  
     9   11    5 1  
    10    6    7 1  
    11    6   10 2  
    12    7    8 2  
    13    9    8 1  
    14   10    9 1  
    15   11   12 1  
    16   13   14 ar 
    17    2   16 1  
    18    3   17 1  
    19    7   18 1  
    20    9   19 1  
    21   10   20 1  
    22   12   21 1  
    23   12   22 1  
    24   13   23 1  
    25   14   24 1  
    26   15   25 1  
@<TRIPOS>SUBSTRUCTURE
     1 JF5         1

