### 
### Created by X-TOOL on Mon Aug  2 16:16:37 2021
### 

@<TRIPOS>MOLECULE
6qrg_ligand
   35    36     1     0     0
SMALL
GAST_HUCK


@<TRIPOS>ATOM
      1 C17       -19.7880   17.6330  -12.8060 C.2       1 JET         0.0770
      2 C21       -18.3970   17.7750  -12.7050 C.2       1 JET         0.0740
      3 O01       -20.3830   19.9030  -12.9800 O.2       1 JET        -0.3723
      4 C02       -20.7960   18.7750  -12.8050 C.2       1 JET         0.2440
      5 O03       -22.1780   18.5160  -12.5680 O.3       1 JET        -0.2688
      6 C04       -23.0620   19.6500  -12.5350 C.3       1 JET         0.1068
      7 C05       -23.4580   20.0870  -11.1090 C.ar      1 JET        -0.0220
      8 C06       -22.7370   21.1210  -10.5060 C.ar      1 JET        -0.0689
      9 C07       -23.0580   21.5410   -9.2140 C.ar      1 JET        -0.0771
     10 C08       -24.1120   20.9240   -8.5280 C.ar      1 JET        -0.0399
     11 C09       -24.8430   19.8920   -9.1090 C.ar      1 JET         0.0878
     12 O10       -25.9450   19.2920   -8.3510 O.3       1 JET        -0.2979
     13 C11       -25.7580   17.9480   -7.8360 C.3       1 JET         0.1701
     14 C12       -26.3950   17.7060   -6.4680 C.2       1 JET         0.2646
     15 O13       -26.8820   16.4290   -6.1200 O.3       1 JET        -0.2781
     16 C14       -27.2950   16.2660   -4.7680 C.3       1 JET         0.0658
     17 O15       -26.4790   18.5960   -5.6460 O.2       1 JET        -0.3674
     18 C16       -24.5150   19.4770  -10.4170 C.ar      1 JET        -0.0295
     19 C18       -20.0700   16.2850  -12.8910 C.2       1 JET         0.0151
     20 N19       -18.9110   15.6430  -12.8360 N.2       1 JET        -0.2141
     21 N20       -17.8680   16.5190  -12.7310 N.pl3     1 JET        -0.2128
     22 H1        -17.8447   18.7099  -12.6217 H         1 JET         0.1095
     23 H2        -23.9784   19.3921  -13.0861 H         1 JET         0.0774
     24 H3        -22.5616   20.4949  -13.0306 H         1 JET         0.0774
     25 H4        -21.9257   21.5986  -11.0433 H         1 JET         0.0465
     26 H5        -22.4951   22.3396   -8.7445 H         1 JET         0.0572
     27 H6        -24.3627   21.2562   -7.5271 H         1 JET         0.0486
     28 H7        -24.6778   17.7582   -7.7517 H         1 JET         0.0876
     29 H8        -26.2000   17.2397   -8.5522 H         1 JET         0.0876
     30 H9        -27.6531   15.2371   -4.6155 H         1 JET         0.0577
     31 H10       -28.1070   16.9736   -4.5448 H         1 JET         0.0577
     32 H11       -26.4442   16.4611   -4.0986 H         1 JET         0.0577
     33 H12       -25.0823   18.6832  -10.8894 H         1 JET         0.0479
     34 H13       -21.0568   15.8341  -12.9853 H         1 JET         0.0692
     35 H14       -16.8684   16.2758  -12.6808 H         1 JET         0.2617
@<TRIPOS>BOND
     1    1    2 2  
     2    1    4 1  
     3    1   19 1  
     4    2   21 1  
     5    4    3 2  
     6    4    5 1  
     7    5    6 1  
     8    6    7 1  
     9    7    8 ar 
    10    7   18 ar 
    11    8    9 ar 
    12    9   10 ar 
    13   10   11 ar 
    14   11   12 1  
    15   11   18 ar 
    16   12   13 1  
    17   13   14 1  
    18   14   15 1  
    19   14   17 2  
    20   15   16 1  
    21   19   20 2  
    22   20   21 1  
    23    2   22 1  
    24    6   23 1  
    25    6   24 1  
    26    8   25 1  
    27    9   26 1  
    28   10   27 1  
    29   13   28 1  
    30   13   29 1  
    31   16   30 1  
    32   16   31 1  
    33   16   32 1  
    34   18   33 1  
    35   19   34 1  
    36   21   35 1  
@<TRIPOS>SUBSTRUCTURE
     1 JET         1

