### 
### Created by X-TOOL on Mon Aug  2 16:11:29 2021
### 

@<TRIPOS>MOLECULE
6qri_ligand
  133   135     1     0     0
SMALL
GAST_HUCK


@<TRIPOS>ATOM
      1 C1         95.0640  -12.0070  117.8970 C.2       1 CV9         0.2375
      2 C2         96.2070  -11.0770  118.0540 C.2       1 CV9         0.0070
      3 C3         96.2720   -9.7590  118.2800 C.2       1 CV9        -0.0601
      4 C4         95.1970   -8.7750  118.3840 C.2       1 CV9        -0.0639
      5 C5         95.5350   -7.4850  118.5100 C.2       1 CV9        -0.0659
      6 C6         94.4830   -6.4760  118.6490 C.2       1 CV9        -0.0636
      7 C7         94.5450   -5.1470  118.8620 C.2       1 CV9        -0.0595
      8 C8         95.7280   -4.3040  119.1760 C.2       1 CV9        -0.0428
      9 C9         96.9740   -4.6130  118.7490 C.2       1 CV9        -0.0563
     10 C10        98.2590   -3.8820  119.1000 C.3       1 CV9         0.0263
     11 C11        98.2810   -2.4110  118.6510 C.3       1 CV9         0.1054
     12 C12        97.9070   -2.2680  117.1830 C.2       1 CV9        -0.0482
     13 C13        96.6940   -1.7980  116.8760 C.2       1 CV9        -0.0792
     14 C14        96.3180   -1.6360  115.4860 C.2       1 CV9        -0.0882
     15 C15        95.1440   -1.1730  115.0440 C.2       1 CV9        -0.0760
     16 C16        93.9200   -0.7220  115.7730 C.2       1 CV9         0.0167
     17 N1         93.6550   -0.6520  117.0950 N.2       1 CV9        -0.3119
     18 C18        92.3730   -0.1860  117.1230 C.2       1 CV9         0.1856
     19 O1         91.8750    0.0360  115.8690 O.3       1 CV9        -0.2268
     20 C17        92.8660   -0.3260  114.9870 C.2       1 CV9         0.1052
     21 C19        91.3860    0.1670  118.1750 C.3       1 CV9         0.0724
     22 C20        90.1100   -0.7140  118.1020 C.3       1 CV9         0.0827
     23 C21        90.0580   -2.0160  118.9450 C.3       1 CV9         0.0137
     24 C38        92.0970    0.1940  119.5270 C.3       1 CV9        -0.0422
     25 O31        88.9820    0.1240  118.3880 O.3       1 CV9        -0.3764
     26 C22        90.2670   -3.2510  118.0870 C.3       1 CV9         0.0879
     27 C23        90.4200   -4.4630  118.9860 C.2       1 CV9        -0.0505
     28 C24        90.4810   -5.6550  118.4140 C.2       1 CV9        -0.0785
     29 C25        90.7280   -6.8690  119.1640 C.2       1 CV9        -0.0880
     30 C26        91.0450   -7.9570  118.4580 C.2       1 CV9        -0.0881
     31 C27        91.3710   -9.2030  119.1450 C.2       1 CV9        -0.0805
     32 C28        91.6880  -10.3630  118.5620 C.2       1 CV9        -0.0732
     33 C29        91.7330  -10.6080  117.0630 C.3       1 CV9         0.0165
     34 C30        93.1380  -11.0480  116.6310 C.3       1 CV9         0.1035
     35 C31        93.1370  -11.7390  115.2390 C.3       1 CV9         0.0153
     36 C32        94.0920  -12.9280  115.0440 C.3       1 CV9         0.0630
     37 C33        94.2830  -13.4330  113.6150 C.3       1 CV9        -0.0006
     38 C34        95.2980  -14.5710  113.5090 C.3       1 CV9         0.0548
     39 C35        96.7260  -14.1840  113.8790 C.3       1 CV9        -0.0389
     40 O47        93.6450  -11.7390  117.7820 O.3       1 CV9        -0.2763
     41 C40        93.3740  -10.6430  114.1960 C.3       1 CV9        -0.0572
     42 O49        93.5600  -14.0070  115.8050 O.3       1 CV9        -0.3913
     43 O50        95.3230  -14.9950  112.1470 O.3       1 CV9        -0.3920
     44 O51        89.1960   -3.4070  117.1510 O.3       1 CV9        -0.3771
     45 C36        95.4370   -3.1510  120.1000 C.3       1 CV9        -0.0366
     46 C37        99.4410   -4.6680  118.5050 C.3       1 CV9        -0.0458
     47 O54        99.5720   -1.8480  118.9300 O.3       1 CV9        -0.3275
     48 C55        99.7550   -0.4670  118.6040 C.3       1 CV9         0.1915
     49 C56       100.0060    0.3550  119.8760 C.3       1 CV9         0.1376
     50 C57       100.5660    1.7340  119.5240 C.3       1 CV9         0.1173
     51 C58       101.7340    1.6020  118.5500 C.3       1 CV9         0.1097
     52 C59       101.2470    0.8940  117.2910 C.3       1 CV9         0.0873
     53 O7        100.8460   -0.4230  117.6720 O.3       1 CV9        -0.3429
     54 C39        90.5930  -11.5910  116.7890 C.3       1 CV9        -0.0485
     55 O62        95.3410  -13.1900  117.8430 O.2       1 CV9        -0.3721
     56 O63        98.7830    0.5250  120.6060 O.3       1 CV9        -0.3721
     57 C64        98.5710   -0.3480  121.7170 C.3       1 CV9         0.0371
     58 O65       100.9800    2.4080  120.7140 O.3       1 CV9        -0.3744
     59 C66       100.0840    3.4450  121.1250 C.3       1 CV9         0.0370
     60 O67       102.2620    2.8850  118.2100 O.3       1 CV9        -0.3866
     61 C68       102.3180    0.8290  116.2050 C.3       1 CV9        -0.0361
     62 C69        88.4240    0.1660  119.7120 C.3       1 CV9         0.0371
     63 H1         97.1805  -11.5577  117.9693 H         1 CV9         0.0551
     64 H2         97.2776   -9.3603  118.4052 H         1 CV9         0.0687
     65 H3         94.1522   -9.0812  118.3598 H         1 CV9         0.0529
     66 H4         96.5831   -7.1892  118.5091 H         1 CV9         0.0665
     67 H5         93.4710   -6.8695  118.5654 H         1 CV9         0.0535
     68 H6         93.5962   -4.6168  118.7947 H         1 CV9         0.0675
     69 H7         97.0652   -5.4726  118.0867 H         1 CV9         0.0723
     70 H8         98.3589   -3.8878  120.1954 H         1 CV9         0.0556
     71 H9         97.5332   -1.8611  119.2413 H         1 CV9         0.0825
     72 H10        98.6121   -2.5425  116.3998 H         1 CV9         0.0701
     73 H11        95.9917   -1.5381  117.6667 H         1 CV9         0.0426
     74 H12        97.0561   -1.9158  114.7357 H         1 CV9         0.0482
     75 H13        95.0660   -1.1141  113.9594 H         1 CV9         0.0487
     76 H14        92.8239   -0.3035  113.8990 H         1 CV9         0.1002
     77 H15        91.0524    1.1962  117.9765 H         1 CV9         0.0584
     78 H16        90.0252   -1.0394  117.0547 H         1 CV9         0.0632
     79 H17        89.0753   -2.0845  119.4344 H         1 CV9         0.0346
     80 H18        90.8469   -1.9765  119.7105 H         1 CV9         0.0346
     81 H19        92.9813    0.8450  119.4632 H         1 CV9         0.0263
     82 H20        92.4107   -0.8252  119.7967 H         1 CV9         0.0263
     83 H21        91.4109    0.5817  120.2944 H         1 CV9         0.0263
     84 H22        91.1992   -3.1258  117.5166 H         1 CV9         0.0791
     85 H23        90.4778   -4.3558  120.0682 H         1 CV9         0.0705
     86 H24        90.3398   -5.7257  117.3365 H         1 CV9         0.0432
     87 H25        90.6586   -6.8933  120.2505 H         1 CV9         0.0486
     88 H26        91.0603   -7.9149  117.3699 H         1 CV9         0.0486
     89 H27        91.3543   -9.1857  120.2337 H         1 CV9         0.0431
     90 H28        91.9339  -11.2001  119.2137 H         1 CV9         0.0683
     91 H29        91.5111   -9.6700  116.5330 H         1 CV9         0.0519
     92 H30        93.7587  -10.1488  116.5037 H         1 CV9         0.0682
     93 H31        92.1240  -12.1388  115.0840 H         1 CV9         0.0354
     94 H32        95.0786  -12.6408  115.4366 H         1 CV9         0.0598
     95 H33        94.6303  -12.5957  112.9918 H         1 CV9         0.0315
     96 H34        93.3139  -13.7928  113.2389 H         1 CV9         0.0315
     97 H35        94.9734  -15.3962  114.1599 H         1 CV9         0.0591
     98 H36        97.3823  -15.0604  113.7738 H         1 CV9         0.0254
     99 H37        96.7518  -13.8295  114.9200 H         1 CV9         0.0254
    100 H38        97.0739  -13.3830  113.2101 H         1 CV9         0.0254
    101 H39        92.6729   -9.8134  114.3701 H         1 CV9         0.0234
    102 H40        93.2124  -11.0543  113.1887 H         1 CV9         0.0234
    103 H41        94.4068  -10.2739  114.2801 H         1 CV9         0.0234
    104 H42        93.4286  -13.7254  116.7027 H         1 CV9         0.2098
    105 H43        94.4469  -15.2455  111.8784 H         1 CV9         0.2098
    106 H44        88.3806   -3.5313  117.6223 H         1 CV9         0.2139
    107 H45        94.3564   -3.1056  120.3006 H         1 CV9         0.0352
    108 H46        95.7621   -2.2120  119.6283 H         1 CV9         0.0352
    109 H47        95.9798   -3.2932  121.0461 H         1 CV9         0.0352
    110 H48        99.3948   -5.7130  118.8453 H         1 CV9         0.0265
    111 H49       100.3868   -4.2155  118.8377 H         1 CV9         0.0265
    112 H50        99.3861   -4.6373  117.4068 H         1 CV9         0.0265
    113 H51        98.8492   -0.0779  118.1161 H         1 CV9         0.0940
    114 H52       100.7324   -0.1788  120.5064 H         1 CV9         0.0674
    115 H53        99.7728    2.3245  119.0422 H         1 CV9         0.0650
    116 H54       102.5282    1.0033  119.0199 H         1 CV9         0.0646
    117 H55       100.3793    1.4376  116.8890 H         1 CV9         0.0621
    118 H56        89.6446  -11.1604  117.1428 H         1 CV9         0.0261
    119 H57        90.7874  -12.5350  117.3191 H         1 CV9         0.0261
    120 H58        90.5272  -11.7842  115.7081 H         1 CV9         0.0261
    121 H59        97.6040   -0.1152  122.1869 H         1 CV9         0.0524
    122 H60        99.3782   -0.2096  122.4513 H         1 CV9         0.0524
    123 H61        98.5674   -1.3912  121.3682 H         1 CV9         0.0524
    124 H62       100.4654    3.9167  122.0427 H         1 CV9         0.0524
    125 H63        99.0903    3.0153  121.3194 H         1 CV9         0.0524
    126 H64       100.0076    4.2004  120.3290 H         1 CV9         0.0524
    127 H65       102.5637    3.3211  118.9982 H         1 CV9         0.2100
    128 H66       101.9146    0.3102  115.3229 H         1 CV9         0.0255
    129 H67       103.1926    0.2805  116.5848 H         1 CV9         0.0255
    130 H68       102.6184    1.8494  115.9247 H         1 CV9         0.0255
    131 H69        87.5721    0.8616  119.7289 H         1 CV9         0.0524
    132 H70        89.1909    0.5082  120.4225 H         1 CV9         0.0524
    133 H71        88.0819   -0.8396  119.9978 H         1 CV9         0.0524
@<TRIPOS>BOND
     1    1    2 1  
     2    1   40 1  
     3    1   55 2  
     4    2    3 2  
     5    3    4 1  
     6    4    5 2  
     7    5    6 1  
     8    6    7 2  
     9    7    8 1  
    10    8    9 2  
    11    8   45 1  
    12    9   10 1  
    13   10   11 1  
    14   10   46 1  
    15   11   12 1  
    16   11   47 1  
    17   12   13 2  
    18   13   14 1  
    19   14   15 2  
    20   15   16 1  
    21   16   17 1  
    22   16   20 2  
    23   17   18 2  
    24   18   19 1  
    25   18   21 1  
    26   19   20 1  
    27   21   22 1  
    28   21   24 1  
    29   22   23 1  
    30   22   25 1  
    31   23   26 1  
    32   25   62 1  
    33   26   27 1  
    34   26   44 1  
    35   27   28 2  
    36   28   29 1  
    37   29   30 2  
    38   30   31 1  
    39   31   32 2  
    40   32   33 1  
    41   33   34 1  
    42   33   54 1  
    43   34   35 1  
    44   34   40 1  
    45   35   36 1  
    46   35   41 1  
    47   36   37 1  
    48   36   42 1  
    49   37   38 1  
    50   38   39 1  
    51   38   43 1  
    52   47   48 1  
    53   48   49 1  
    54   48   53 1  
    55   49   50 1  
    56   49   56 1  
    57   50   51 1  
    58   50   58 1  
    59   51   52 1  
    60   51   60 1  
    61   52   53 1  
    62   52   61 1  
    63   56   57 1  
    64   58   59 1  
    65    2   63 1  
    66    3   64 1  
    67    4   65 1  
    68    5   66 1  
    69    6   67 1  
    70    7   68 1  
    71    9   69 1  
    72   10   70 1  
    73   11   71 1  
    74   12   72 1  
    75   13   73 1  
    76   14   74 1  
    77   15   75 1  
    78   20   76 1  
    79   21   77 1  
    80   22   78 1  
    81   23   79 1  
    82   23   80 1  
    83   24   81 1  
    84   24   82 1  
    85   24   83 1  
    86   26   84 1  
    87   27   85 1  
    88   28   86 1  
    89   29   87 1  
    90   30   88 1  
    91   31   89 1  
    92   32   90 1  
    93   33   91 1  
    94   34   92 1  
    95   35   93 1  
    96   36   94 1  
    97   37   95 1  
    98   37   96 1  
    99   38   97 1  
   100   39   98 1  
   101   39   99 1  
   102   39  100 1  
   103   41  101 1  
   104   41  102 1  
   105   41  103 1  
   106   42  104 1  
   107   43  105 1  
   108   44  106 1  
   109   45  107 1  
   110   45  108 1  
   111   45  109 1  
   112   46  110 1  
   113   46  111 1  
   114   46  112 1  
   115   48  113 1  
   116   49  114 1  
   117   50  115 1  
   118   51  116 1  
   119   52  117 1  
   120   54  118 1  
   121   54  119 1  
   122   54  120 1  
   123   57  121 1  
   124   57  122 1  
   125   57  123 1  
   126   59  124 1  
   127   59  125 1  
   128   59  126 1  
   129   60  127 1  
   130   61  128 1  
   131   61  129 1  
   132   61  130 1  
   133   62  131 1  
   134   62  132 1  
   135   62  133 1  
@<TRIPOS>SUBSTRUCTURE
     1 CV9         1

