### 
### Created by X-TOOL on Mon Aug  2 16:16:38 2021
### 

@<TRIPOS>MOLECULE
6qs5_ligand
   23    23     1     0     0
SMALL
GAST_HUCK


@<TRIPOS>ATOM
      1 C02        20.1700    9.3100   20.6130 C.2       1 JGB         0.2096
      2 C04        21.2030    8.5330   19.7880 C.2       1 JGB         0.1547
      3 C05        21.4410    8.9980   18.5930 C.2       1 JGB        -0.0042
      4 C06        22.3260    8.4320   17.4990 C.ar      1 JGB        -0.0108
      5 C07        23.0890    7.2770   17.6320 C.ar      1 JGB        -0.0194
      6 C08        23.8360    6.8010   16.5260 C.ar      1 JGB         0.1289
      7 C10        23.7820    7.4770   15.3160 C.ar      1 JGB         0.1312
      8 C12        23.0200    8.6220   15.1830 C.ar      1 JGB        -0.0263
      9 C13        22.2760    9.0940   16.2880 C.ar      1 JGB        -0.0571
     10 C14        21.8500    7.3090   20.3930 C.1       1 JGB         0.0799
     11 N01        19.7570    8.8150   21.9820 N.am      1 JGB        -0.3021
     12 N15        22.3340    6.4050   20.8590 N.1       1 JGB        -0.3579
     13 O03        19.6480   10.2820   20.1270 O.2       1 JGB        -0.3937
     14 O09        24.5910    5.6940   16.6610 O.3       1 JGB        -0.3339
     15 O11        24.5430    7.0090   14.1750 O.3       1 JGB        -0.3269
     16 H1         20.9303    9.9272   18.3447 H         1 JGB         0.0981
     17 H2         23.1121    6.7442   18.5758 H         1 JGB         0.0591
     18 H3         22.9931    9.1539   14.2388 H         1 JGB         0.0553
     19 H4         21.6621    9.9814   16.1843 H         1 JGB         0.0607
     20 H5         19.0829    9.3255   22.5159 H         1 JGB         0.1800
     21 H6         20.1581    7.9774   22.3528 H         1 JGB         0.1800
     22 H7         24.5107    5.3635   17.5480 H         1 JGB         0.2446
     23 H8         23.9509    6.8220   13.4560 H         1 JGB         0.2502
@<TRIPOS>BOND
     1    1    2 1  
     2    1   11 am 
     3    1   13 2  
     4    2    3 2  
     5    2   10 1  
     6    3    4 1  
     7    4    5 ar 
     8    4    9 ar 
     9    5    6 ar 
    10    6    7 ar 
    11    6   14 1  
    12    7    8 ar 
    13    7   15 1  
    14    8    9 ar 
    15   10   12 3  
    16    3   16 1  
    17    5   17 1  
    18    8   18 1  
    19    9   19 1  
    20   11   20 1  
    21   11   21 1  
    22   14   22 1  
    23   15   23 1  
@<TRIPOS>SUBSTRUCTURE
     1 JGB         1

