### 
### Created by X-TOOL on Mon Aug  2 16:17:07 2021
### 

@<TRIPOS>MOLECULE
6qtq_ligand
  104   105     1     0     0
SMALL
GAST_HUCK


@<TRIPOS>ATOM
      1 N           1.5700    2.8860  -27.8580 N.4       1 ARG         0.2379
      2 CA          0.1640    3.2570  -27.7070 C.3       1 ARG         0.0651
      3 C          -0.3290    2.9030  -26.3050 C.2       1 ARG         0.2268
      4 O          -0.2660    1.7510  -25.8740 O.2       1 ARG        -0.3907
      5 CB         -0.6840    2.5760  -28.7800 C.3       1 ARG         0.0110
      6 CG         -0.3530    3.0460  -30.1940 C.3       1 ARG        -0.0125
      7 CD         -1.2890    2.4400  -31.2320 C.3       1 ARG         0.0629
      8 NE         -0.9880    2.9040  -32.5870 N.pl3     1 ARG        -0.2723
      9 CZ         -1.5360    3.9730  -33.1620 C.cat     1 ARG         0.2882
     10 NH1        -2.4240    4.7100  -32.5060 N.pl3     1 ARG        -0.2849
     11 NH2        -1.1950    4.3070  -34.3990 N.pl3     1 ARG        -0.2849
     12 N          -0.8260    3.9110  -25.6000 N.am      1 ARG        -0.2594
     13 CA         -1.2300    3.7800  -24.2080 C.3       1 ARG         0.1391
     14 C          -2.7250    4.0140  -24.0790 C.2       1 ARG         0.2057
     15 O          -3.3000    4.8380  -24.7930 O.2       1 ARG        -0.3942
     16 CB         -0.4520    4.7900  -23.3660 C.3       1 ARG         0.0164
     17 CG          1.0410    4.7120  -23.6050 C.ar      1 ARG        -0.0493
     18 CD1         1.6710    3.4860  -23.7680 C.ar      1 ARG        -0.0685
     19 CD2         1.8130    5.8600  -23.6890 C.ar      1 ARG        -0.0685
     20 CE1         3.0310    3.4070  -23.9950 C.ar      1 ARG        -0.0398
     21 CE2         3.1740    5.7890  -23.9110 C.ar      1 ARG        -0.0398
     22 CZ          3.7760    4.5610  -24.0660 C.ar      1 ARG         0.0805
     23 OH          5.1330    4.4910  -24.2860 O.3       1 ARG        -0.3376
     24 N          -3.3470    3.2790  -23.1630 N.am      1 ARG        -0.2639
     25 CA         -4.7760    3.4010  -22.9140 C.3       1 ARG         0.1282
     26 C          -5.6030    3.1080  -24.1640 C.2       1 ARG         0.2036
     27 O          -6.6740    3.6990  -24.3660 O.2       1 ARG        -0.3944
     28 CB         -5.1410    4.7630  -22.3170 C.3       1 ARG        -0.0244
     29 N          -5.1220    2.1740  -24.9810 N.am      1 ARG        -0.2635
     30 CA         -5.8490    1.6940  -26.1540 C.3       1 ARG         0.1332
     31 C          -6.3930    0.3010  -25.8570 C.2       1 ARG         0.2042
     32 O          -5.6420   -0.6040  -25.4630 O.2       1 ARG        -0.3944
     33 CB         -4.9620    1.6970  -27.4100 C.3       1 ARG        -0.0063
     34 CG1        -5.6990    1.0840  -28.5920 C.3       1 ARG        -0.0584
     35 CG2        -4.5160    3.1150  -27.7450 C.3       1 ARG        -0.0584
     36 N          -7.6920    0.1280  -26.0690 N.am      1 ARG        -0.2635
     37 CA         -8.3500   -1.1430  -25.7470 C.3       1 ARG         0.1334
     38 C          -7.9240   -2.1970  -26.7590 C.2       1 ARG         0.2061
     39 O          -7.8460   -1.9010  -27.9670 O.2       1 ARG        -0.3942
     40 CB         -9.8640   -0.9570  -25.7720 C.3       1 ARG        -0.0062
     41 CG1       -10.5680   -2.2560  -25.4550 C.3       1 ARG        -0.0584
     42 CG2       -10.3110    0.1190  -24.7850 C.3       1 ARG        -0.0584
     43 N          -7.6430   -3.4310  -26.3360 N.am      1 ARG        -0.2556
     44 CA         -7.4250   -4.4930  -27.3230 C.3       1 ARG         0.0972
     45 C          -8.7280   -4.8440  -28.0390 C.2       1 ARG         0.0603
     46 O          -8.8260   -4.4080  -29.1820 O.co2     1 ARG        -0.5666
     47 CB         -6.9140   -5.6720  -26.4890 C.3       1 ARG        -0.0159
     48 CG         -7.2350   -5.3730  -25.1010 C.3       1 ARG        -0.0288
     49 CD         -7.3920   -3.8800  -24.9540 C.3       1 ARG         0.0362
     50 OXT        -9.5160   -5.5190  -27.3830 O.co2     1 ARG        -0.5666
     51 H1          1.8826    3.1245  -28.7861 H         1 ARG         0.2015
     52 H2          1.6731    1.8938  -27.7134 H         1 ARG         0.2015
     53 H3          2.1237    3.3839  -27.1787 H         1 ARG         0.2015
     54 H4          0.0758    4.3455  -27.8384 H         1 ARG         0.1098
     55 H5         -1.7434    2.7926  -28.5784 H         1 ARG         0.0347
     56 H6         -0.5144    1.4906  -28.7234 H         1 ARG         0.0347
     57 H7          0.6797    2.7523  -30.4330 H         1 ARG         0.0302
     58 H8         -0.4411    4.1417  -30.2335 H         1 ARG         0.0302
     59 H9         -2.3230    2.7208  -30.9832 H         1 ARG         0.0689
     60 H10        -1.1891    1.3450  -31.2024 H         1 ARG         0.0689
     61 H11        -0.3029    2.3649  -33.1355 H         1 ARG         0.2642
     62 H12        -2.8430    5.5352  -32.9581 H         1 ARG         0.2615
     63 H13        -2.6940    4.4567  -31.5448 H         1 ARG         0.2615
     64 H14        -0.5067    3.7400  -34.9144 H         1 ARG         0.2615
     65 H15        -1.6184    5.1335  -34.8446 H         1 ARG         0.2615
     66 H16        -0.9276    4.8007  -26.0450 H         1 ARG         0.1886
     67 H17        -0.9967    2.7639  -23.8571 H         1 ARG         0.0821
     68 H18        -0.6504    4.5907  -22.3026 H         1 ARG         0.0453
     69 H19        -0.7980    5.8028  -23.6201 H         1 ARG         0.0453
     70 H20         1.0856    2.5751  -23.7163 H         1 ARG         0.0530
     71 H21         1.3406    6.8294  -23.5786 H         1 ARG         0.0530
     72 H22         3.5084    2.4414  -24.1165 H         1 ARG         0.0525
     73 H23         3.7654    6.6960  -23.9630 H         1 ARG         0.0525
     74 H24         5.3924    3.5811  -24.3710 H         1 ARG         0.2458
     75 H25        -2.8166    2.6214  -22.6279 H         1 ARG         0.1883
     76 H26        -5.0378    2.6383  -22.1658 H         1 ARG         0.0797
     77 H27        -6.2267    4.8094  -22.1464 H         1 ARG         0.0277
     78 H28        -4.8451    5.5603  -23.0146 H         1 ARG         0.0277
     79 H29        -4.6136    4.8976  -21.3612 H         1 ARG         0.0277
     80 H30        -4.2230    1.7833  -24.7833 H         1 ARG         0.1883
     81 H31        -6.6984    2.3684  -26.3378 H         1 ARG         0.0802
     82 H32        -4.0681    1.0898  -27.2047 H         1 ARG         0.0343
     83 H33        -5.0465    1.0967  -29.4775 H         1 ARG         0.0234
     84 H34        -6.6090    1.6663  -28.7987 H         1 ARG         0.0234
     85 H35        -5.9741    0.0458  -28.3542 H         1 ARG         0.0234
     86 H36        -3.9853    3.5457  -26.8831 H         1 ARG         0.0234
     87 H37        -5.3970    3.7310  -27.9783 H         1 ARG         0.0234
     88 H38        -3.8437    3.0920  -28.6153 H         1 ARG         0.0234
     89 H39        -8.2311    0.8767  -26.4547 H         1 ARG         0.1883
     90 H40        -8.0450   -1.4657  -24.7406 H         1 ARG         0.0803
     91 H41       -10.1536   -0.6405  -26.7849 H         1 ARG         0.0343
     92 H42       -11.6564   -2.0984  -25.4786 H         1 ARG         0.0234
     93 H43       -10.2691   -2.6003  -24.4540 H         1 ARG         0.0234
     94 H44       -10.2911   -3.0148  -26.2016 H         1 ARG         0.0234
     95 H45        -9.7983    1.0643  -25.0162 H         1 ARG         0.0234
     96 H46       -10.0581   -0.1945  -23.7614 H         1 ARG         0.0234
     97 H47       -11.3986    0.2623  -24.8665 H         1 ARG         0.0234
     98 H48        -6.6728   -4.1875  -28.0652 H         1 ARG         0.0728
     99 H49        -5.8262   -5.7799  -26.6117 H         1 ARG         0.0306
    100 H50        -7.4123   -6.6016  -26.8015 H         1 ARG         0.0306
    101 H51        -6.4229   -5.7262  -24.4485 H         1 ARG         0.0286
    102 H52        -8.1738   -5.8735  -24.8217 H         1 ARG         0.0286
    103 H53        -8.2412   -3.6351  -24.2991 H         1 ARG         0.0524
    104 H54        -6.4752   -3.4246  -24.5514 H         1 ARG         0.0524
@<TRIPOS>BOND
     1    1    2 1  
     2    2    3 1  
     3    2    5 1  
     4    3    4 2  
     5    3   12 am 
     6    5    6 1  
     7    6    7 1  
     8    7    8 1  
     9    8    9 ar 
    10    9   10 ar 
    11    9   11 ar 
    12   12   13 1  
    13   13   14 1  
    14   13   16 1  
    15   14   15 2  
    16   14   24 am 
    17   16   17 1  
    18   17   18 ar 
    19   17   19 ar 
    20   18   20 ar 
    21   19   21 ar 
    22   20   22 ar 
    23   21   22 ar 
    24   22   23 1  
    25   24   25 1  
    26   25   26 1  
    27   25   28 1  
    28   26   27 2  
    29   26   29 am 
    30   29   30 1  
    31   30   31 1  
    32   30   33 1  
    33   31   32 2  
    34   31   36 am 
    35   33   34 1  
    36   33   35 1  
    37   36   37 1  
    38   37   38 1  
    39   37   40 1  
    40   38   39 2  
    41   38   43 am 
    42   40   41 1  
    43   40   42 1  
    44   43   44 1  
    45   43   49 1  
    46   44   45 1  
    47   44   47 1  
    48   45   46 ar 
    49   45   50 ar 
    50   47   48 1  
    51   48   49 1  
    52    1   51 1  
    53    1   52 1  
    54    1   53 1  
    55    2   54 1  
    56    5   55 1  
    57    5   56 1  
    58    6   57 1  
    59    6   58 1  
    60    7   59 1  
    61    7   60 1  
    62    8   61 1  
    63   10   62 1  
    64   10   63 1  
    65   11   64 1  
    66   11   65 1  
    67   12   66 1  
    68   13   67 1  
    69   16   68 1  
    70   16   69 1  
    71   18   70 1  
    72   19   71 1  
    73   20   72 1  
    74   21   73 1  
    75   23   74 1  
    76   24   75 1  
    77   25   76 1  
    78   28   77 1  
    79   28   78 1  
    80   28   79 1  
    81   29   80 1  
    82   30   81 1  
    83   33   82 1  
    84   34   83 1  
    85   34   84 1  
    86   34   85 1  
    87   35   86 1  
    88   35   87 1  
    89   35   88 1  
    90   36   89 1  
    91   37   90 1  
    92   40   91 1  
    93   41   92 1  
    94   41   93 1  
    95   41   94 1  
    96   42   95 1  
    97   42   96 1  
    98   42   97 1  
    99   44   98 1  
   100   47   99 1  
   101   47  100 1  
   102   48  101 1  
   103   48  102 1  
   104   49  103 1  
   105   49  104 1  
@<TRIPOS>SUBSTRUCTURE
     1 ARG         1

