### 
### Created by X-TOOL on Mon Aug  2 16:11:30 2021
### 

@<TRIPOS>MOLECULE
6quv_ligand
   52    56     1     0     0
SMALL
GAST_HUCK


@<TRIPOS>ATOM
      1 C4         -5.1410  -16.5550   23.6760 C.ar      1 JJN        -0.0503
      2 C5         -5.1530  -16.7280   25.0590 C.ar      1 JJN         0.0450
      3 C6         -6.1890  -17.4220   25.6820 C.ar      1 JJN        -0.0049
      4 C8         -4.8860  -16.2790   27.3040 C.3       1 JJN         0.1568
      5 C10        -6.7580  -14.7390   27.9670 C.2       1 JJN         0.2024
      6 C13        -7.1840  -17.2080   28.0210 C.ar      1 JJN        -0.0061
      7 C15        -9.0230  -18.0830   29.3180 C.ar      1 JJN        -0.0640
      8 C17        -8.6480  -15.7120   29.2530 C.ar      1 JJN        -0.0483
      9 C20        -4.3310  -16.5630   29.9140 C.3       1 JJN        -0.0023
     10 C21        -3.2990  -16.6690   31.0300 C.3       1 JJN        -0.0315
     11 C24        -2.9820  -17.8540   28.4290 C.3       1 JJN        -0.0023
     12 C26        -1.3220  -17.8820   31.8920 C.3       1 JJN        -0.0431
     13 C1         -6.1520  -17.1450   22.9260 C.ar      1 JJN        -0.0804
     14 C2         -7.1760  -17.8550   23.5460 C.ar      1 JJN        -0.0815
     15 C3         -7.1760  -18.0310   24.9210 C.ar      1 JJN        -0.0691
     16 N7         -4.2450  -16.2490   25.9900 N.pl3     1 JJN        -0.2971
     17 C9         -5.9400  -17.4240   27.1800 C.3       1 JJN         0.0728
     18 N11        -5.5110  -14.9760   27.5210 N.am      1 JJN        -0.2582
     19 C12        -7.5350  -15.9080   28.4260 C.ar      1 JJN         0.0532
     20 C14        -7.9220  -18.2870   28.5010 C.ar      1 JJN        -0.0524
     21 C16        -9.3920  -16.8010   29.6840 C.ar      1 JJN        -0.0629
     22 O18        -7.2240  -13.6030   27.9870 O.2       1 JJN        -0.3884
     23 C19        -3.7530  -16.5180   28.4850 C.3       1 JJN         0.0278
     24 N22        -2.4260  -17.8880   30.8890 N.4       1 JJN         0.2331
     25 C23        -1.8910  -18.0070   29.4890 C.3       1 JJN        -0.0315
     26 C25        -2.7630  -15.3490   28.3790 C.3       1 JJN        -0.0546
     27 H1         -4.3616  -15.9740   23.1964 H         1 JJN         0.0494
     28 H2         -9.5973  -18.9316   29.6716 H         1 JJN         0.0635
     29 H3         -8.9282  -14.7097   29.5564 H         1 JJN         0.0651
     30 H4         -4.9123  -15.6431   30.0747 H         1 JJN         0.0324
     31 H5         -4.9979  -17.4350   29.9836 H         1 JJN         0.0324
     32 H6         -3.8254  -16.7209   31.9945 H         1 JJN         0.0814
     33 H7         -2.6612  -15.7730   31.0080 H         1 JJN         0.0814
     34 H8         -2.5111  -17.9366   27.4383 H         1 JJN         0.0324
     35 H9         -3.7049  -18.6726   28.5608 H         1 JJN         0.0324
     36 H10        -0.7044  -18.7830   31.7628 H         1 JJN         0.0777
     37 H11        -1.7480  -17.8718   32.9061 H         1 JJN         0.0777
     38 H12        -0.6995  -16.9868   31.7467 H         1 JJN         0.0777
     39 H13        -6.1427  -17.0510   21.8461 H         1 JJN         0.0528
     40 H14        -7.9789  -18.2731   22.9497 H         1 JJN         0.0488
     41 H15        -7.9385  -18.6376   25.3961 H         1 JJN         0.0524
     42 H16        -3.2866  -15.9281   25.7912 H         1 JJN         0.1763
     43 H17        -5.4956  -18.3823   27.4867 H         1 JJN         0.0653
     44 H18        -4.9510  -14.1733   27.3157 H         1 JJN         0.1871
     45 H19        -7.6325  -19.2967   28.2330 H         1 JJN         0.0572
     46 H20       -10.2643  -16.6469   30.3089 H         1 JJN         0.0572
     47 H21        -2.9983  -18.6981   31.0688 H         1 JJN         0.2030
     48 H22        -1.1352  -17.2232   29.3327 H         1 JJN         0.0814
     49 H23        -1.4232  -18.9958   29.3733 H         1 JJN         0.0814
     50 H24        -3.3135  -14.3975   28.4190 H         1 JJN         0.0237
     51 H25        -2.2164  -15.4165   27.4268 H         1 JJN         0.0237
     52 H26        -2.0499  -15.3954   29.2152 H         1 JJN         0.0237
@<TRIPOS>BOND
     1    2    1 ar 
     2    1   13 ar 
     3    3    2 ar 
     4   16    2 1  
     5    3   15 ar 
     6   17    3 1  
     7    4   16 1  
     8    4   17 1  
     9    4   18 1  
    10   23    4 1  
    11   18    5 am 
    12    5   19 1  
    13    5   22 2  
    14   17    6 1  
    15    6   19 ar 
    16    6   20 ar 
    17   20    7 ar 
    18    7   21 ar 
    19   19    8 ar 
    20    8   21 ar 
    21    9   10 1  
    22    9   23 1  
    23   10   24 1  
    24   23   11 1  
    25   11   25 1  
    26   24   12 1  
    27   13   14 ar 
    28   14   15 ar 
    29   23   26 1  
    30   24   25 1  
    31    1   27 1  
    32    7   28 1  
    33    8   29 1  
    34    9   30 1  
    35    9   31 1  
    36   10   32 1  
    37   10   33 1  
    38   11   34 1  
    39   11   35 1  
    40   12   36 1  
    41   12   37 1  
    42   12   38 1  
    43   13   39 1  
    44   14   40 1  
    45   15   41 1  
    46   16   42 1  
    47   17   43 1  
    48   18   44 1  
    49   20   45 1  
    50   21   46 1  
    51   24   47 1  
    52   25   48 1  
    53   25   49 1  
    54   26   50 1  
    55   26   51 1  
    56   26   52 1  
@<TRIPOS>SUBSTRUCTURE
     1 JJN         1

