### 
### Created by X-TOOL on Mon Aug  2 16:11:30 2021
### 

@<TRIPOS>MOLECULE
6quw_ligand
   37    39     1     0     0
SMALL
GAST_HUCK


@<TRIPOS>ATOM
      1 C4         -6.5300  -17.0560   28.1830 C.3       1 JJQ        -0.0259
      2 C5         -5.1450  -19.1090   27.6330 C.3       1 JJQ        -0.0835
      3 C6         -4.9670  -16.8680   25.0350 C.ar      1 JJQ         0.0748
      4 C7         -7.0480  -18.0650   25.1530 C.ar      1 JJQ        -0.0502
      5 C10        -3.0890  -16.8950   28.1150 C.3       1 JJQ        -0.0045
      6 C13        -7.2420  -17.8190   23.8000 C.ar      1 JJQ        -0.0454
      7 C15        -7.3700  -14.9060   27.1030 C.3       1 JJQ        -0.0199
      8 C1         -5.4660  -17.6650   27.2210 C.3       1 JJQ         0.0232
      9 C11        -6.3950  -15.5250   28.1040 C.3       1 JJQ        -0.0245
     10 C12        -5.1490  -16.6230   23.6730 C.ar      1 JJQ        -0.0108
     11 C14        -6.6500  -14.8730   29.4610 C.3       1 JJQ        -0.0199
     12 C16        -6.2970  -17.1150   23.0650 C.ar      1 JJQ        -0.0448
     13 C2         -5.8920  -17.6050   25.7730 C.ar      1 JJQ        -0.0230
     14 C3         -4.2970  -16.6160   27.2380 C.3       1 JJQ         0.0516
     15 N8         -3.9060  -16.4610   25.8410 N.pl3     1 JJQ        -0.2660
     16 N9         -4.9460  -15.3090   27.6590 N.4       1 JJQ         0.2451
     17 H1         -6.3462  -17.3975   29.2124 H         1 JJQ         0.0209
     18 H2         -7.5393  -17.3615   27.8700 H         1 JJQ         0.0209
     19 H3         -6.0579  -19.7196   27.5707 H         1 JJQ         0.0116
     20 H4         -4.7663  -19.1201   28.6657 H         1 JJQ         0.0116
     21 H5         -4.3810  -19.5218   26.9578 H         1 JJQ         0.0116
     22 H6         -7.7922  -18.6114   25.7211 H         1 JJQ         0.0786
     23 H7         -2.3659  -16.0720   28.0157 H         1 JJQ         0.0300
     24 H8         -2.6172  -17.8375   27.8003 H         1 JJQ         0.0300
     25 H9         -3.4088  -16.9775   29.1642 H         1 JJQ         0.0300
     26 H10        -8.1403  -18.1802   23.3126 H         1 JJQ         0.0608
     27 H11        -7.2332  -13.8147   27.0848 H         1 JJQ         0.0287
     28 H12        -8.4019  -15.1412   27.4027 H         1 JJQ         0.0287
     29 H13        -7.1766  -15.3164   26.1009 H         1 JJQ         0.0287
     30 H14        -4.4143  -16.0639   23.1050 H         1 JJQ         0.0603
     31 H15        -5.9621  -15.2977   30.2069 H         1 JJQ         0.0287
     32 H16        -7.6885  -15.0631   29.7698 H         1 JJQ         0.0287
     33 H17        -6.4831  -13.7885   29.3839 H         1 JJQ         0.0287
     34 H18        -6.4569  -16.9477   22.0060 H         1 JJQ         0.0812
     35 H19        -2.9975  -16.1095   25.5065 H         1 JJQ         0.1970
     36 H20        -4.4227  -14.9144   28.4248 H         1 JJQ         0.2036
     37 H21        -4.9338  -14.6703   26.8793 H         1 JJQ         0.2036
@<TRIPOS>BOND
     1    8    1 1  
     2    1    9 1  
     3    8    2 1  
     4    3   10 ar 
     5   13    3 ar 
     6    3   15 1  
     7    4    6 ar 
     8   13    4 ar 
     9   14    5 1  
    10    6   12 ar 
    11    9    7 1  
    12    8   13 1  
    13    8   14 1  
    14    9   11 1  
    15    9   16 1  
    16   10   12 ar 
    17   14   15 1  
    18   14   16 1  
    19    1   17 1  
    20    1   18 1  
    21    2   19 1  
    22    2   20 1  
    23    2   21 1  
    24    4   22 1  
    25    5   23 1  
    26    5   24 1  
    27    5   25 1  
    28    6   26 1  
    29    7   27 1  
    30    7   28 1  
    31    7   29 1  
    32   10   30 1  
    33   11   31 1  
    34   11   32 1  
    35   11   33 1  
    36   12   34 1  
    37   15   35 1  
    38   16   36 1  
    39   16   37 1  
@<TRIPOS>SUBSTRUCTURE
     1 JJQ         1

