### 
### Created by X-TOOL on Sat Aug  7 21:31:19 2021
### 

@<TRIPOS>MOLECULE
6qw7_ligand
   46    47     1     0     0
SMALL
GAST_HUCK


@<TRIPOS>ATOM
      1 C4         34.5340   -0.5400  -17.4880 C.3       1 MK7        -0.0025
      2 C5         37.1010    2.9250  -23.3120 C.3       1 MK7        -0.0315
      3 C6         35.1760    3.5970  -22.0080 C.3       1 MK7        -0.0315
      4 C7         36.4690   -0.0770  -15.9070 C.3       1 MK7         0.0807
      5 C8         38.4720   -1.2450  -16.3920 C.2       1 MK7         0.1743
      6 C10        36.9890   -0.8620  -18.2200 C.3       1 MK7         0.1342
      7 C1         35.5420   -1.2920  -18.3800 C.3       1 MK7        -0.0069
      8 C2         37.3160    1.6910  -22.4450 C.3       1 MK7         0.0106
      9 C3         35.3980    2.4540  -21.0270 C.3       1 MK7         0.0106
     10 C9         36.8140    1.9040  -21.0320 C.3       1 MK7         0.0517
     11 C11        37.1180    0.5210  -18.9050 C.2       1 MK7         0.2023
     12 C12        34.9730   -0.3770  -16.0270 C.3       1 MK7         0.0316
     13 N13        35.7440    3.4130  -23.3130 N.4       1 MK7         0.2271
     14 N14        36.7560    0.6240  -20.3250 N.am      1 MK7        -0.2816
     15 N15        34.6520   -1.6120  -15.2850 N.4       1 MK7         0.4138
     16 N16        37.3720   -0.7720  -16.8210 N.am      1 MK7        -0.2479
     17 O17        34.8650   -4.3090  -13.9260 O.co2     1 MK7        -0.4578
     18 O18        39.2210   -1.8140  -17.1430 O.2       1 MK7        -0.3828
     19 O19        37.4970    1.4700  -18.2940 O.2       1 MK7        -0.3945
     20 O20        36.9700   -3.3000  -13.8200 O.co2     1 MK7        -0.4578
     21 O21        36.5600   -4.9230  -15.4110 O.co2     1 MK7        -0.4578
     22 O22        35.4320   -2.6400  -15.8810 O.3       1 MK7        -0.2010
     23 S23        35.9470   -3.7670  -14.7610 S.o2      1 MK7        -0.0327
     24 H1         33.5839   -1.0941  -17.5011 H         1 MK7         0.0323
     25 H2         34.3798    0.4624  -17.9139 H         1 MK7         0.0323
     26 H3         37.3787    2.6736  -24.3462 H         1 MK7         0.0814
     27 H4         37.7564    3.7267  -22.9409 H         1 MK7         0.0814
     28 H5         35.6154    4.5067  -21.5729 H         1 MK7         0.0814
     29 H6         34.0912    3.7347  -22.1274 H         1 MK7         0.0814
     30 H7         36.7754   -0.3342  -14.8823 H         1 MK7         0.0583
     31 H8         36.6026    1.0027  -16.0696 H         1 MK7         0.0583
     32 H9         38.7371   -1.1348  -15.3415 H         1 MK7         0.1547
     33 H10        37.6459   -1.5884  -18.7208 H         1 MK7         0.0804
     34 H11        35.2533   -1.1330  -19.4294 H         1 MK7         0.0314
     35 H12        35.4764   -2.3635  -18.1400 H         1 MK7         0.0314
     36 H13        38.3915    1.4627  -22.4104 H         1 MK7         0.0339
     37 H14        36.7753    0.8433  -22.8912 H         1 MK7         0.0339
     38 H15        34.7084    1.6370  -21.2855 H         1 MK7         0.0339
     39 H16        35.1717    2.8182  -20.0140 H         1 MK7         0.0339
     40 H17        37.4884    2.5977  -20.5087 H         1 MK7         0.0560
     41 H18        34.4141    0.4613  -15.5856 H         1 MK7         0.0882
     42 H19        35.1721    2.7517  -23.8147 H         1 MK7         0.2013
     43 H20        35.7291    4.3005  -23.7907 H         1 MK7         0.2013
     44 H21        36.4645   -0.1959  -20.8177 H         1 MK7         0.1855
     45 H22        33.6702   -1.8249  -15.3671 H         1 MK7         0.2382
     46 H23        34.8932   -1.5088  -14.3118 H         1 MK7         0.2382
@<TRIPOS>BOND
     1    1    7 1  
     2   12    1 1  
     3    8    2 1  
     4    2   13 1  
     5    9    3 1  
     6    3   13 1  
     7   12    4 1  
     8    4   16 1  
     9   16    5 am 
    10    5   18 2  
    11    7    6 1  
    12    6   11 1  
    13   16    6 1  
    14   10    8 1  
    15   10    9 1  
    16   14   10 1  
    17   11   14 am 
    18   11   19 2  
    19   15   12 1  
    20   22   15 1  
    21   23   17 ar 
    22   23   20 ar 
    23   23   21 ar 
    24   22   23 1  
    25    1   24 1  
    26    1   25 1  
    27    2   26 1  
    28    2   27 1  
    29    3   28 1  
    30    3   29 1  
    31    4   30 1  
    32    4   31 1  
    33    5   32 1  
    34    6   33 1  
    35    7   34 1  
    36    7   35 1  
    37    8   36 1  
    38    8   37 1  
    39    9   38 1  
    40    9   39 1  
    41   10   40 1  
    42   12   41 1  
    43   13   42 1  
    44   13   43 1  
    45   14   44 1  
    46   15   45 1  
    47   15   46 1  
@<TRIPOS>SUBSTRUCTURE
     1 MK7         1

