### 
### Created by X-TOOL on Mon Aug  2 16:10:21 2021
### 

@<TRIPOS>MOLECULE
6qw8_ligand
   46    47     1     0     0
SMALL
GAST_HUCK


@<TRIPOS>ATOM
      1 C4         -7.9090   -1.1160   10.4630 C.3       1 MK7        -0.0025
      2 C5         -2.5530    4.0920   10.6620 C.3       1 MK7        -0.0315
      3 C6         -4.9030    4.6440   11.4690 C.3       1 MK7        -0.0315
      4 C7         -7.5420   -1.2440   12.9580 C.3       1 MK7         0.0807
      5 C8         -5.9290   -3.0810   13.1500 C.2       1 MK7         0.1743
      6 C10        -5.5990   -1.3110   11.5210 C.3       1 MK7         0.1342
      7 C1         -6.4170   -1.4810   10.2420 C.3       1 MK7        -0.0069
      8 C2         -3.0720    2.7190   10.2070 C.3       1 MK7         0.0106
      9 C3         -5.3500    3.1990   11.1070 C.3       1 MK7         0.0106
     10 C9         -4.1510    2.2120   11.1690 C.3       1 MK7         0.0517
     11 C11        -5.2500    0.1420   11.7620 C.2       1 MK7         0.2023
     12 C12        -8.4730   -1.6670   11.8170 C.3       1 MK7         0.0316
     13 N13        -3.6550    5.1100   10.7340 N.4       1 MK7         0.2271
     14 N14        -4.5290    0.8320   10.8940 N.am      1 MK7        -0.2816
     15 N15        -8.4190   -3.1750   11.7500 N.4       1 MK7         0.4138
     16 N16        -6.2900   -1.8920   12.6260 N.am      1 MK7        -0.2479
     17 O17        -7.9120   -5.5930    9.5770 O.co2     1 MK7        -0.4578
     18 O18        -4.9720   -3.7350   12.6630 O.2       1 MK7        -0.3828
     19 O19        -5.5810    0.7250   12.8220 O.2       1 MK7        -0.3945
     20 O20        -8.1790   -5.2740   11.9450 O.co2     1 MK7        -0.4578
     21 O21       -10.1280   -5.6630   10.6570 O.co2     1 MK7        -0.4578
     22 O22        -8.9100   -3.6120   10.5450 O.3       1 MK7        -0.2010
     23 S23        -8.7710   -5.2380   10.6530 S.o2      1 MK7        -0.0327
     24 H1         -8.5006   -1.5387    9.6376 H         1 MK7         0.0323
     25 H2         -8.0072   -0.0204   10.4610 H         1 MK7         0.0323
     26 H3         -1.7932    4.4401    9.9469 H         1 MK7         0.0814
     27 H4         -2.0986    3.9884   11.6584 H         1 MK7         0.0814
     28 H5         -4.7023    4.6831   12.5498 H         1 MK7         0.0814
     29 H6         -5.7256    5.3319   11.2237 H         1 MK7         0.0814
     30 H7         -7.9226   -1.5964   13.9280 H         1 MK7         0.0583
     31 H8         -7.4243   -0.1507   12.9855 H         1 MK7         0.0583
     32 H9         -6.4729   -3.4794   14.0052 H         1 MK7         0.1547
     33 H10        -4.6543   -1.8596   11.3925 H         1 MK7         0.0804
     34 H11        -6.0010   -0.8253    9.4629 H         1 MK7         0.0314
     35 H12        -6.3511   -2.5286    9.9132 H         1 MK7         0.0314
     36 H13        -2.2369    2.0033   10.1890 H         1 MK7         0.0339
     37 H14        -3.4995    2.8092    9.1975 H         1 MK7         0.0339
     38 H15        -5.7660    3.1958   10.0887 H         1 MK7         0.0339
     39 H16        -6.1218    2.8723   11.8194 H         1 MK7         0.0339
     40 H17        -3.7413    2.2390   12.1895 H         1 MK7         0.0560
     41 H18        -9.4987   -1.3091   11.9900 H         1 MK7         0.0882
     42 H19        -3.9182    5.3551    9.7924 H         1 MK7         0.2013
     43 H20        -3.2985    5.9259   11.2065 H         1 MK7         0.2013
     44 H21        -4.2399    0.4015   10.0390 H         1 MK7         0.1855
     45 H22        -8.9750   -3.5619   12.4965 H         1 MK7         0.2382
     46 H23        -7.4632   -3.4791   11.8505 H         1 MK7         0.2382
@<TRIPOS>BOND
     1    1    7 1  
     2   12    1 1  
     3    8    2 1  
     4    2   13 1  
     5    9    3 1  
     6    3   13 1  
     7   12    4 1  
     8    4   16 1  
     9   16    5 am 
    10    5   18 2  
    11    7    6 1  
    12    6   11 1  
    13   16    6 1  
    14   10    8 1  
    15   10    9 1  
    16   14   10 1  
    17   11   14 am 
    18   11   19 2  
    19   15   12 1  
    20   22   15 1  
    21   23   17 ar 
    22   23   20 ar 
    23   23   21 ar 
    24   22   23 1  
    25    1   24 1  
    26    1   25 1  
    27    2   26 1  
    28    2   27 1  
    29    3   28 1  
    30    3   29 1  
    31    4   30 1  
    32    4   31 1  
    33    5   32 1  
    34    6   33 1  
    35    7   34 1  
    36    7   35 1  
    37    8   36 1  
    38    8   37 1  
    39    9   38 1  
    40    9   39 1  
    41   10   40 1  
    42   12   41 1  
    43   13   42 1  
    44   13   43 1  
    45   14   44 1  
    46   15   45 1  
    47   15   46 1  
@<TRIPOS>SUBSTRUCTURE
     1 MK7         1

