### 
### Created by X-TOOL on Mon Aug  2 16:10:21 2021
### 

@<TRIPOS>MOLECULE
6qw9_ligand
   46    47     1     0     0
SMALL
GAST_HUCK


@<TRIPOS>ATOM
      1 C4         17.0100    8.0600   22.2330 C.3       1 MK7        -0.0025
      2 C5         12.4790    3.7050   24.9160 C.3       1 MK7        -0.0315
      3 C6         10.5600    4.9690   24.2590 C.3       1 MK7        -0.0315
      4 C7         15.9010   10.3160   22.5750 C.3       1 MK7         0.0807
      5 C8         14.3480   10.7180   20.7290 C.2       1 MK7         0.1743
      6 C10        14.5870    8.4620   21.5050 C.3       1 MK7         0.1342
      7 C1         15.9030    7.6700   21.2620 C.3       1 MK7        -0.0069
      8 C2         13.4440    4.5280   24.0650 C.3       1 MK7         0.0106
      9 C3         11.4230    5.7460   23.2770 C.3       1 MK7         0.0106
     10 C9         12.8490    5.9180   23.7890 C.3       1 MK7         0.0517
     11 C11        13.7740    8.0110   22.7170 C.2       1 MK7         0.2023
     12 C12        17.2670    9.5690   22.3330 C.3       1 MK7         0.0316
     13 N13        11.1180    3.6560   24.3950 N.4       1 MK7         0.2271
     14 N14        13.6040    6.5960   22.7500 N.am      1 MK7        -0.2816
     15 N15        18.1010   10.0980   21.2210 N.4       1 MK7         0.4138
     16 N16        14.8860    9.8930   21.5890 N.am      1 MK7        -0.2479
     17 O17        17.0200   11.7680   18.1180 O.co2     1 MK7        -0.4578
     18 O18        13.7250   10.4180   19.6950 O.2       1 MK7        -0.3828
     19 O19        13.3340    8.7670   23.5400 O.2       1 MK7        -0.3945
     20 O20        19.1710   10.7820   18.6890 O.co2     1 MK7        -0.4578
     21 O21        17.3020    9.3740   18.4440 O.co2     1 MK7        -0.4578
     22 O22        17.2280   10.8450   20.3600 O.3       1 MK7        -0.2010
     23 S23        17.7180   10.7330   18.8100 S.o2      1 MK7        -0.0327
     24 H1         17.9410    7.5741   21.9056 H         1 MK7         0.0323
     25 H2         16.7358    7.6914   23.2325 H         1 MK7         0.0323
     26 H3         12.4472    4.1439   25.9241 H         1 MK7         0.0814
     27 H4         12.8630    2.6760   24.9760 H         1 MK7         0.0814
     28 H5          9.5305    4.8996   23.8777 H         1 MK7         0.0814
     29 H6         10.5561    5.4760   25.2352 H         1 MK7         0.0814
     30 H7         16.0623   11.4002   22.4829 H         1 MK7         0.0583
     31 H8         15.5382   10.0839   23.5872 H         1 MK7         0.0583
     32 H9         14.4569   11.7807   20.9405 H         1 MK7         0.1547
     33 H10        13.9510    8.3032   20.6217 H         1 MK7         0.0804
     34 H11        15.6944    6.5963   21.3785 H         1 MK7         0.0314
     35 H12        16.2484    7.8673   20.2365 H         1 MK7         0.0314
     36 H13        13.6192    4.0109   23.1101 H         1 MK7         0.0339
     37 H14        14.3977    4.6403   24.6016 H         1 MK7         0.0339
     38 H15        10.9784    6.7400   23.1213 H         1 MK7         0.0339
     39 H16        11.4512    5.2030   22.3208 H         1 MK7         0.0339
     40 H17        12.8559    6.5164   24.7120 H         1 MK7         0.0560
     41 H18        17.8644    9.7250   23.2433 H         1 MK7         0.0882
     42 H19        10.5443    3.1202   25.0274 H         1 MK7         0.2013
     43 H20        11.1291    3.2097   23.4913 H         1 MK7         0.2013
     44 H21        14.0225    6.0467   22.0267 H         1 MK7         0.1855
     45 H22        18.5216    9.3368   20.7113 H         1 MK7         0.2382
     46 H23        18.8240   10.6982   21.5858 H         1 MK7         0.2382
@<TRIPOS>BOND
     1    1    7 1  
     2   12    1 1  
     3    8    2 1  
     4    2   13 1  
     5    9    3 1  
     6    3   13 1  
     7   12    4 1  
     8    4   16 1  
     9   16    5 am 
    10    5   18 2  
    11    7    6 1  
    12    6   11 1  
    13   16    6 1  
    14   10    8 1  
    15   10    9 1  
    16   14   10 1  
    17   11   14 am 
    18   11   19 2  
    19   15   12 1  
    20   22   15 1  
    21   23   17 ar 
    22   23   20 ar 
    23   23   21 ar 
    24   22   23 1  
    25    1   24 1  
    26    1   25 1  
    27    2   26 1  
    28    2   27 1  
    29    3   28 1  
    30    3   29 1  
    31    4   30 1  
    32    4   31 1  
    33    5   32 1  
    34    6   33 1  
    35    7   34 1  
    36    7   35 1  
    37    8   36 1  
    38    8   37 1  
    39    9   38 1  
    40    9   39 1  
    41   10   40 1  
    42   12   41 1  
    43   13   42 1  
    44   13   43 1  
    45   14   44 1  
    46   15   45 1  
    47   15   46 1  
@<TRIPOS>SUBSTRUCTURE
     1 MK7         1

