### 
### Created by X-TOOL on Mon Aug  2 16:10:21 2021
### 

@<TRIPOS>MOLECULE
6qwa_ligand
   46    47     1     0     0
SMALL
GAST_HUCK


@<TRIPOS>ATOM
      1 C4         17.0730    8.0620   22.2060 C.3       1 MK7        -0.0025
      2 C5         14.8510    5.0790   24.9030 C.3       1 MK7        -0.0315
      3 C6         13.4110    3.7770   23.5700 C.3       1 MK7        -0.0315
      4 C7         16.0060   10.3360   22.5090 C.3       1 MK7         0.0807
      5 C8         14.4310   10.7760   20.7110 C.2       1 MK7         0.1743
      6 C10        14.6360    8.5180   21.4440 C.3       1 MK7         0.1342
      7 C1         15.9220    7.6940   21.2590 C.3       1 MK7        -0.0069
      8 C2         13.7460    6.1150   25.1370 C.3       1 MK7         0.0106
      9 C3         12.2710    4.7910   23.6100 C.3       1 MK7         0.0106
     10 C9         12.8080    6.1780   23.9300 C.3       1 MK7         0.0517
     11 C11        13.8360    8.0820   22.6940 C.2       1 MK7         0.2023
     12 C12        17.3440    9.5660   22.2710 C.3       1 MK7         0.0316
     13 N13        14.2530    3.7900   24.7290 N.4       1 MK7         0.2271
     14 N14        13.5560    6.6690   22.7820 N.am      1 MK7        -0.2816
     15 N15        18.1320   10.0620   21.1280 N.4       1 MK7         0.4138
     16 N16        14.9800    9.9250   21.5260 N.am      1 MK7        -0.2479
     17 O17        17.3080    9.4600   18.4510 O.co2     1 MK7        -0.4578
     18 O18        13.7560   10.4500   19.7250 O.2       1 MK7        -0.3828
     19 O19        13.4180    8.8540   23.5140 O.2       1 MK7        -0.3945
     20 O20        19.1740   10.8670   18.6510 O.co2     1 MK7        -0.4578
     21 O21        17.0390   11.8390   18.0730 O.co2     1 MK7        -0.4578
     22 O22        17.3070   10.9550   20.4300 O.3       1 MK7        -0.2010
     23 S23        17.7080   10.8080   18.8380 S.o2      1 MK7        -0.0327
     24 H1         17.9864    7.5572   21.8584 H         1 MK7         0.0323
     25 H2         16.8206    7.7085   23.2166 H         1 MK7         0.0323
     26 H3         15.5264    5.0579   25.7710 H         1 MK7         0.0814
     27 H4         15.4213    5.3456   24.0010 H         1 MK7         0.0814
     28 H5         14.0338    3.9934   22.6895 H         1 MK7         0.0814
     29 H6         12.9747    2.7719   23.4725 H         1 MK7         0.0814
     30 H7         16.1889   11.4160   22.4087 H         1 MK7         0.0583
     31 H8         15.6406   10.1186   23.5235 H         1 MK7         0.0583
     32 H9         14.5729   11.8378   20.9066 H         1 MK7         0.1547
     33 H10        13.9979    8.3637   20.5614 H         1 MK7         0.0804
     34 H11        15.6739    6.6345   21.4198 H         1 MK7         0.0314
     35 H12        16.2720    7.8360   20.2259 H         1 MK7         0.0314
     36 H13        14.2031    7.1034   25.2924 H         1 MK7         0.0339
     37 H14        13.1687    5.8335   26.0300 H         1 MK7         0.0339
     38 H15        11.5485    4.4942   24.3845 H         1 MK7         0.0339
     39 H16        11.7705    4.8129   22.6307 H         1 MK7         0.0339
     40 H17        11.9702    6.8565   24.1485 H         1 MK7         0.0560
     41 H18        17.9659    9.7374   23.1620 H         1 MK7         0.0882
     42 H19        13.7003    3.5687   25.5424 H         1 MK7         0.2013
     43 H20        14.9794    3.1000   24.6184 H         1 MK7         0.2013
     44 H21        13.8691    6.0409   22.0697 H         1 MK7         0.1855
     45 H22        18.3985    9.2952   20.5304 H         1 MK7         0.2382
     46 H23        18.9591   10.5361   21.4554 H         1 MK7         0.2382
@<TRIPOS>BOND
     1    1    7 1  
     2   12    1 1  
     3    8    2 1  
     4    2   13 1  
     5    9    3 1  
     6    3   13 1  
     7   12    4 1  
     8    4   16 1  
     9   16    5 am 
    10    5   18 2  
    11    7    6 1  
    12    6   11 1  
    13   16    6 1  
    14   10    8 1  
    15   10    9 1  
    16   14   10 1  
    17   11   14 am 
    18   11   19 2  
    19   15   12 1  
    20   22   15 1  
    21   23   17 ar 
    22   23   20 ar 
    23   23   21 ar 
    24   22   23 1  
    25    1   24 1  
    26    1   25 1  
    27    2   26 1  
    28    2   27 1  
    29    3   28 1  
    30    3   29 1  
    31    4   30 1  
    32    4   31 1  
    33    5   32 1  
    34    6   33 1  
    35    7   34 1  
    36    7   35 1  
    37    8   36 1  
    38    8   37 1  
    39    9   38 1  
    40    9   39 1  
    41   10   40 1  
    42   12   41 1  
    43   13   42 1  
    44   13   43 1  
    45   14   44 1  
    46   15   45 1  
    47   15   46 1  
@<TRIPOS>SUBSTRUCTURE
     1 MK7         1

