### 
### Created by X-TOOL on Mon Aug  2 16:10:21 2021
### 

@<TRIPOS>MOLECULE
6qwb_ligand
   46    47     1     0     0
SMALL
GAST_HUCK


@<TRIPOS>ATOM
      1 C4         17.1170    8.1340   22.1560 C.3       1 MK7        -0.0025
      2 C5         13.9360    4.4550   24.6790 C.3       1 MK7        -0.0315
      3 C6         12.2020    3.8400   23.2790 C.3       1 MK7        -0.0315
      4 C7         16.0110   10.4210   22.5260 C.3       1 MK7         0.0807
      5 C8         14.5080   10.8330   20.7210 C.2       1 MK7         0.1743
      6 C10        14.6290    8.5640   21.4930 C.3       1 MK7         0.1342
      7 C1         15.8680    7.6560   21.4060 C.3       1 MK7        -0.0069
      8 C2         13.2940    5.7960   25.0230 C.3       1 MK7         0.0106
      9 C3         11.4870    5.1860   23.3560 C.3       1 MK7         0.0106
     10 C9         12.4170    6.2880   23.8710 C.3       1 MK7         0.0517
     11 C11        13.7600    8.1600   22.7160 C.2       1 MK7         0.2023
     12 C12        17.3300    9.6420   22.2730 C.3       1 MK7         0.0316
     13 N13        12.8950    3.5000   24.4820 N.4       1 MK7         0.2271
     14 N14        13.2660    6.7690   22.7770 N.am      1 MK7        -0.2816
     15 N15        18.1030   10.1510   21.1180 N.4       1 MK7         0.4138
     16 N16        15.0140    9.9780   21.5450 N.am      1 MK7        -0.2479
     17 O17        17.2290    9.4210   18.5390 O.co2     1 MK7        -0.4578
     18 O18        13.7640   10.5270   19.8160 O.2       1 MK7        -0.3828
     19 O19        13.4560    8.9770   23.5390 O.2       1 MK7        -0.3945
     20 O20        19.1300   10.8780   18.7180 O.co2     1 MK7        -0.4578
     21 O21        16.9560   11.7450   18.0860 O.co2     1 MK7        -0.4578
     22 O22        17.2120   10.9890   20.3830 O.3       1 MK7        -0.2010
     23 S23        17.6580   10.7920   18.8650 S.o2      1 MK7        -0.0327
     24 H1         17.9932    7.7158   21.6389 H         1 MK7         0.0323
     25 H2         17.0651    7.7276   23.1768 H         1 MK7         0.0323
     26 H3         14.5870    4.1312   25.5044 H         1 MK7         0.0814
     27 H4         14.5311    4.5521   23.7590 H         1 MK7         0.0814
     28 H5         12.9299    3.8776   22.4552 H         1 MK7         0.0814
     29 H6         11.4553    3.0589   23.0732 H         1 MK7         0.0814
     30 H7         16.1897   11.5004   22.4120 H         1 MK7         0.0583
     31 H8         15.6475   10.2149   23.5435 H         1 MK7         0.0583
     32 H9         14.7635   11.8842   20.8462 H         1 MK7         0.1547
     33 H10        14.0286    8.4122   20.5839 H         1 MK7         0.0804
     34 H11        15.5906    6.6716   21.8109 H         1 MK7         0.0314
     35 H12        16.1341    7.5538   20.3436 H         1 MK7         0.0314
     36 H13        14.0848    6.5358   25.2159 H         1 MK7         0.0339
     37 H14        12.6739    5.6787   25.9239 H         1 MK7         0.0339
     38 H15        10.6283    5.0959   24.0375 H         1 MK7         0.0339
     39 H16        11.1310    5.4594   22.3518 H         1 MK7         0.0339
     40 H17        11.7996    7.1224   24.2351 H         1 MK7         0.0560
     41 H18        17.9551    9.8037   23.1636 H         1 MK7         0.0882
     42 H19        12.2571    3.5241   25.2621 H         1 MK7         0.2013
     43 H20        13.2899    2.5763   24.3993 H         1 MK7         0.2013
     44 H21        13.5194    6.1340   22.0472 H         1 MK7         0.1855
     45 H22        18.4174    9.3853   20.5428 H         1 MK7         0.2382
     46 H23        18.8991   10.6811   21.4362 H         1 MK7         0.2382
@<TRIPOS>BOND
     1    1    7 1  
     2   12    1 1  
     3    8    2 1  
     4    2   13 1  
     5    9    3 1  
     6    3   13 1  
     7   12    4 1  
     8    4   16 1  
     9   16    5 am 
    10    5   18 2  
    11    7    6 1  
    12    6   11 1  
    13   16    6 1  
    14   10    8 1  
    15   10    9 1  
    16   14   10 1  
    17   11   14 am 
    18   11   19 2  
    19   15   12 1  
    20   22   15 1  
    21   23   17 ar 
    22   23   20 ar 
    23   23   21 ar 
    24   22   23 1  
    25    1   24 1  
    26    1   25 1  
    27    2   26 1  
    28    2   27 1  
    29    3   28 1  
    30    3   29 1  
    31    4   30 1  
    32    4   31 1  
    33    5   32 1  
    34    6   33 1  
    35    7   34 1  
    36    7   35 1  
    37    8   36 1  
    38    8   37 1  
    39    9   38 1  
    40    9   39 1  
    41   10   40 1  
    42   12   41 1  
    43   13   42 1  
    44   13   43 1  
    45   14   44 1  
    46   15   45 1  
    47   15   46 1  
@<TRIPOS>SUBSTRUCTURE
     1 MK7         1

