### 
### Created by X-TOOL on Mon Aug  2 16:16:39 2021
### 

@<TRIPOS>MOLECULE
6qwi_ligand
   50    52     1     0     0
SMALL
GAST_HUCK


@<TRIPOS>ATOM
      1 C10        34.7690   -3.9830   56.1680 C.ar      1 JJW        -0.0358
      2 C13        35.0910   -7.3480   54.7350 C.3       1 JJW         0.0933
      3 C15        35.1530   -8.6110   51.1550 C.3       1 JJW         0.0450
      4 C17        38.9510   -1.4250   62.7070 C.3       1 JJW         0.0380
      5 C11        35.2550   -5.2840   56.0680 C.ar      1 JJW         0.0886
      6 C12        36.3380   -5.7030   56.8840 C.ar      1 JJW        -0.0358
      7 C14        34.4420   -7.7880   53.3990 C.3       1 JJW         0.0753
      8 C16        34.9330  -10.1350   50.9140 C.3       1 JJW        -0.0416
      9 C01        39.3260   -1.1370   61.2640 C.3       1 JJW         0.1240
     10 N01        37.8440   -0.4160   62.9230 N.4       1 JJW         0.2351
     11 O01        40.5960   -2.1220   64.5410 O.3       1 JJW        -0.3833
     12 C02        35.3360   -3.0700   57.0700 C.ar      1 JJW        -0.0673
     13 N02        38.1810   -1.4060   60.2720 N.pl3     1 JJW        -0.1640
     14 O02        38.7100   -1.6750   66.0340 O.3       1 JJW        -0.3837
     15 C03        37.2820   -0.6570   64.2200 C.3       1 JJW        -0.0039
     16 N03        37.1830   -0.7400   59.8000 N.2       1 JJW        -0.0922
     17 O03        34.5460   -6.0770   55.0920 O.3       1 JJW        -0.3173
     18 C04        38.7020   -0.7240   64.9690 C.3       1 JJW         0.1258
     19 N04        36.4260   -1.3060   58.9460 N.2       1 JJW        -0.2195
     20 O04        35.4140   -8.3350   52.5220 O.3       1 JJW        -0.3774
     21 C05        39.7720   -1.0610   63.9210 C.3       1 JJW         0.1311
     22 C06        36.9210   -4.8080   57.8060 C.ar      1 JJW        -0.0673
     23 C07        36.4110   -3.4680   57.9090 C.ar      1 JJW        -0.0294
     24 C08        36.9040   -2.5230   58.7510 C.2       1 JJW         0.0626
     25 C09        38.1450   -2.7480   59.6190 C.2       1 JJW         0.0838
     26 H1         33.9417   -3.6714   55.5407 H         1 JJW         0.0537
     27 H2         36.1809   -7.2655   54.6114 H         1 JJW         0.0636
     28 H3         34.8657   -8.0847   55.5201 H         1 JJW         0.0636
     29 H4         34.2490   -8.0657   50.8462 H         1 JJW         0.0557
     30 H5         36.0088   -8.2733   50.5521 H         1 JJW         0.0557
     31 H6         38.6365   -2.4763   62.7840 H         1 JJW         0.0908
     32 H7         36.7187   -6.7144   56.7986 H         1 JJW         0.0537
     33 H8         33.9752   -6.9146   52.9201 H         1 JJW         0.0587
     34 H9         33.6736   -8.5478   53.6045 H         1 JJW         0.0587
     35 H10        34.7337  -10.3124   49.8468 H         1 JJW         0.0252
     36 H11        34.0751  -10.4803   51.5095 H         1 JJW         0.0252
     37 H12        35.8349  -10.6879   51.2154 H         1 JJW         0.0252
     38 H13        40.1806   -1.7738   60.9916 H         1 JJW         0.0712
     39 H14        39.6165   -0.0791   61.1832 H         1 JJW         0.0712
     40 H15        37.1348   -0.5275   62.2154 H         1 JJW         0.2019
     41 H16        38.2182    0.5189   62.8793 H         1 JJW         0.2019
     42 H17        40.0335   -2.8330   64.8250 H         1 JJW         0.2102
     43 H18        34.9525   -2.0577   57.1268 H         1 JJW         0.0560
     44 H19        38.0503   -1.4368   66.6747 H         1 JJW         0.2101
     45 H20        36.7207   -1.6013   64.2769 H         1 JJW         0.0840
     46 H21        36.6474    0.1688   64.5741 H         1 JJW         0.0840
     47 H22        38.9210    0.2659   65.3957 H         1 JJW         0.0675
     48 H23        40.4121   -0.1975   63.6871 H         1 JJW         0.0679
     49 H24        37.7465   -5.1282   58.4314 H         1 JJW         0.0560
     50 H25        38.7963   -3.6142   59.7263 H         1 JJW         0.1044
@<TRIPOS>BOND
     1    1    5 ar 
     2   12    1 ar 
     3    2    7 1  
     4   17    2 1  
     5    3    8 1  
     6   20    3 1  
     7    9    4 1  
     8    4   10 1  
     9    4   21 1  
    10    6    5 ar 
    11    5   17 1  
    12   22    6 ar 
    13    7   20 1  
    14   13    9 1  
    15   10   15 1  
    16   21   11 1  
    17   23   12 ar 
    18   16   13 1  
    19   13   25 1  
    20   18   14 1  
    21   18   15 1  
    22   19   16 2  
    23   21   18 1  
    24   24   19 1  
    25   23   22 ar 
    26   23   24 1  
    27   24   25 2  
    28    1   26 1  
    29    2   27 1  
    30    2   28 1  
    31    3   29 1  
    32    3   30 1  
    33    4   31 1  
    34    6   32 1  
    35    7   33 1  
    36    7   34 1  
    37    8   35 1  
    38    8   36 1  
    39    8   37 1  
    40    9   38 1  
    41    9   39 1  
    42   10   40 1  
    43   10   41 1  
    44   11   42 1  
    45   12   43 1  
    46   14   44 1  
    47   15   45 1  
    48   15   46 1  
    49   18   47 1  
    50   21   48 1  
    51   22   49 1  
    52   25   50 1  
@<TRIPOS>SUBSTRUCTURE
     1 JJW         1

