### 
### Created by X-TOOL on Mon Aug  2 16:11:31 2021
### 

@<TRIPOS>MOLECULE
6qxa_ligand
   37    40     1     0     0
SMALL
GAST_HUCK


@<TRIPOS>ATOM
      1 C21       -57.5240    9.7320   -7.4700 C.ar      1 GQB         0.0043
      2 C10       -53.8580   10.4530   -0.4000 C.ar      1 GQB         0.0676
      3 C02       -55.4880   12.2690   -3.3270 C.2       1 GQB         0.2285
      4 C03       -54.8430   11.8530   -1.9940 C.2       1 GQB         0.1322
      5 C04       -54.5930   12.6200   -0.8310 C.2       1 GQB        -0.0392
      6 C05       -53.9680   11.7270    0.1700 C.ar      1 GQB        -0.0176
      7 C06       -53.5050   11.9650    1.5090 C.ar      1 GQB        -0.0711
      8 C07       -52.9430   10.8960    2.2230 C.ar      1 GQB        -0.0763
      9 C08       -52.8380    9.6180    1.6490 C.ar      1 GQB        -0.0739
     10 C09       -53.2760    9.3670    0.3620 C.ar      1 GQB        -0.0404
     11 C13       -55.8930   13.4860   -5.5950 C.3       1 GQB         0.0592
     12 C14       -56.3880   12.1370   -6.3040 C.ar      1 GQB        -0.0331
     13 C15       -55.5730   11.1670   -6.9280 C.ar      1 GQB        -0.0496
     14 C16       -56.1490   10.0030   -7.5000 C.ar      1 GQB         0.0431
     15 C18       -57.0000    7.8090   -8.6090 C.2       1 GQB         0.1800
     16 C22       -58.3420   10.6960   -6.8250 C.ar      1 GQB        -0.0684
     17 C23       -57.7630   11.8510   -6.2590 C.ar      1 GQB        -0.0709
     18 N11       -54.3800   10.5280   -1.6790 N.pl3     1 GQB        -0.2671
     19 N12       -55.1270   13.2740   -4.3100 N.am      1 GQB        -0.2748
     20 N19       -57.0600    6.6010   -9.2700 N.pl3     1 GQB        -0.2947
     21 N20       -57.9890    8.5010   -8.0930 N.2       1 GQB        -0.3123
     22 O01       -56.5000   11.5950   -3.6320 O.2       1 GQB        -0.3839
     23 S17       -55.3760    8.6570   -8.3520 S.3       1 GQB         0.0251
     24 H1        -54.8197   13.6767   -0.6970 H         1 GQB         0.0399
     25 H2        -53.5880   12.9483    1.9576 H         1 GQB         0.0556
     26 H3        -52.5843   11.0586    3.2329 H         1 GQB         0.0522
     27 H4        -52.4040    8.8109    2.2280 H         1 GQB         0.0550
     28 H5        -53.1857    8.3764   -0.0688 H         1 GQB         0.0550
     29 H6        -56.7773   14.1005   -5.3704 H         1 GQB         0.0668
     30 H7        -55.2412   14.0247   -6.2985 H         1 GQB         0.0668
     31 H8        -54.4997   11.3127   -6.9703 H         1 GQB         0.0494
     32 H9        -59.4138   10.5443   -6.7672 H         1 GQB         0.0524
     33 H10       -58.4161   12.5584   -5.7609 H         1 GQB         0.0495
     34 H11       -54.4310    9.7301   -2.3284 H         1 GQB         0.2261
     35 H12       -54.3330   13.8541   -4.1280 H         1 GQB         0.1867
     36 H13       -57.9678    6.1347   -9.4094 H         1 GQB         0.1889
     37 H14       -56.1970    6.1645   -9.6246 H         1 GQB         0.1889
@<TRIPOS>BOND
     1    1   14 ar 
     2    1   16 ar 
     3   21    1 1  
     4    2    6 ar 
     5    2   10 ar 
     6   18    2 1  
     7    3    4 1  
     8   19    3 am 
     9    3   22 2  
    10    4    5 2  
    11    4   18 1  
    12    5    6 1  
    13    6    7 ar 
    14    7    8 ar 
    15    9    8 ar 
    16   10    9 ar 
    17   12   11 1  
    18   11   19 1  
    19   13   12 ar 
    20   12   17 ar 
    21   14   13 ar 
    22   14   23 1  
    23   15   20 1  
    24   15   21 2  
    25   15   23 1  
    26   16   17 ar 
    27    5   24 1  
    28    7   25 1  
    29    8   26 1  
    30    9   27 1  
    31   10   28 1  
    32   11   29 1  
    33   11   30 1  
    34   13   31 1  
    35   16   32 1  
    36   17   33 1  
    37   18   34 1  
    38   19   35 1  
    39   20   36 1  
    40   20   37 1  
@<TRIPOS>SUBSTRUCTURE
     1 GQB         1

