### 
### Created by X-TOOL on Mon Aug  2 16:16:39 2021
### 

@<TRIPOS>MOLECULE
6qxd_ligand
   46    48     1     0     0
SMALL
GAST_HUCK


@<TRIPOS>ATOM
      1 C01        24.4640   17.8730   96.3160 C.ar      1 JKB        -0.0570
      2 C02        23.5600   16.7800   96.1570 C.ar      1 JKB        -0.0347
      3 C03        25.8140   17.6700   96.2130 C.ar      1 JKB        -0.0024
      4 C04        24.0740   15.4790   95.9010 C.ar      1 JKB         0.1248
      5 C05        26.3250   16.3590   95.9470 C.ar      1 JKB        -0.0570
      6 C06        25.4250   15.2670   95.7900 C.ar      1 JKB        -0.0347
      7 C07        26.7680   18.8860   96.3920 C.3       1 JKB         0.0003
      8 N08        27.8190   18.6310   95.7440 N.4       1 JKB         0.2495
      9 C09        29.4480   19.5000   94.3320 C.3       1 JKB         0.0737
     10 C10        28.2800   19.7900   95.2400 C.3       1 JKB        -0.0096
     11 N11        30.4320   18.8680   95.2030 N.am      1 JKB        -0.2610
     12 C12        30.0620   17.7290   96.0260 C.3       1 JKB         0.0737
     13 C13        28.6320   17.9210   96.5430 C.3       1 JKB        -0.0096
     14 C14        31.8020   19.4240   95.1970 C.2       1 JKB         0.2169
     15 C15        32.9930   18.9660   96.1010 C.ar      1 JKB         0.0970
     16 C16        33.7730   18.4280   98.3400 C.ar      1 JKB         0.0291
     17 C17        32.7500   18.7750   97.4720 C.ar      1 JKB         0.2261
     18 C18        35.0550   18.2840   97.8640 C.ar      1 JKB         0.2112
     19 C19        35.3280   18.4960   96.4970 C.ar      1 JKB        -0.0088
     20 C20        34.2910   18.8500   95.6130 C.ar      1 JKB        -0.0268
     21 O22        31.9940   20.3740   94.5000 O.2       1 JKB        -0.3803
     22 N23        36.0590   17.9310   98.8900 N.2       1 JKB         0.3187
     23 O24        35.6630   18.0450  100.2360 O.2       1 JKB         0.1796
     24 O25        37.1660   17.5960   98.6280 O.2       1 JKB         0.1796
     25 N26        31.4810   18.9070   98.0420 N.2       1 JKB         0.3197
     26 O28        30.9610   17.8420   98.7550 O.2       1 JKB         0.1796
     27 F21        23.2200   14.4810   95.7630 F         1 JKB        -0.1893
     28 O27        30.9060   19.8970   97.9490 O.2       1 JKB         0.1796
     29 H1         24.0807   18.8665   96.5188 H         1 JKB         0.0549
     30 H2         22.4904   16.9403   96.2308 H         1 JKB         0.0587
     31 H3         27.3939   16.1985   95.8654 H         1 JKB         0.0549
     32 H4         25.8053   14.2730   95.5838 H         1 JKB         0.0587
     33 H5         27.0058   19.0255   97.4569 H         1 JKB         0.0972
     34 H6         26.2946   19.7980   95.9994 H         1 JKB         0.0972
     35 H7         27.5877   18.0405   94.9605 H         1 JKB         0.2049
     36 H8         29.8481   20.4302   93.9023 H         1 JKB         0.0575
     37 H9         29.1513   18.8192   93.5206 H         1 JKB         0.0575
     38 H10        28.6051   20.4459   96.0610 H         1 JKB         0.0835
     39 H11        27.4825   20.2866   94.6678 H         1 JKB         0.0835
     40 H12        30.7534   17.6512   96.8780 H         1 JKB         0.0575
     41 H13        30.1151   16.8090   95.4254 H         1 JKB         0.0575
     42 H14        28.1855   16.9254   96.6823 H         1 JKB         0.0835
     43 H15        28.6887   18.4365   97.5131 H         1 JKB         0.0835
     44 H16        33.5631   18.2705   99.3918 H         1 JKB         0.0779
     45 H17        36.3403   18.3860   96.1252 H         1 JKB         0.0741
     46 H18        34.5011   19.0300   94.5649 H         1 JKB         0.0696
@<TRIPOS>BOND
     1    1    2 ar 
     2    1    3 ar 
     3    2    4 ar 
     4    3    5 ar 
     5    3    7 1  
     6    4    6 ar 
     7    4   27 1  
     8    5    6 ar 
     9    7    8 1  
    10    8   10 1  
    11    8   13 1  
    12   10    9 1  
    13    9   11 1  
    14   11   12 1  
    15   11   14 am 
    16   12   13 1  
    17   14   15 1  
    18   14   21 2  
    19   15   17 ar 
    20   15   20 ar 
    21   17   16 ar 
    22   16   18 ar 
    23   17   25 1  
    24   18   19 ar 
    25   18   22 1  
    26   19   20 ar 
    27   22   23 2  
    28   22   24 2  
    29   25   26 2  
    30   25   28 2  
    31    1   29 1  
    32    2   30 1  
    33    5   31 1  
    34    6   32 1  
    35    7   33 1  
    36    7   34 1  
    37    8   35 1  
    38    9   36 1  
    39    9   37 1  
    40   10   38 1  
    41   10   39 1  
    42   12   40 1  
    43   12   41 1  
    44   13   42 1  
    45   13   43 1  
    46   16   44 1  
    47   19   45 1  
    48   20   46 1  
@<TRIPOS>SUBSTRUCTURE
     1 JKB         1

