### 
### Created by X-TOOL on Mon Aug  2 16:16:39 2021
### 

@<TRIPOS>MOLECULE
6qxj_ligand
   43    46     1     0     0
SMALL
GAST_HUCK


@<TRIPOS>ATOM
      1 N1         14.3390   54.4910   -3.0130 N.ar      1 JKQ        -0.2810
      2 N3         14.8250   57.7810   -5.5330 N.pl3     1 JKQ        -0.2873
      3 C4         12.1800   57.3050   -3.9190 C.2       1 JKQ        -0.0125
      4 C5         13.4010   56.5330   -3.9850 C.ar      1 JKQ         0.0440
      5 C6         13.3530   55.3850   -3.1230 C.ar      1 JKQ         0.1071
      6 C7         15.4350   54.7630   -3.7250 C.ar      1 JKQ         0.0555
      7 C8         14.6080   56.7120   -4.7290 C.ar      1 JKQ         0.1244
      8 C10        15.8300   59.2620   -7.2000 C.3       1 JKQ        -0.0296
      9 C13        11.9520   58.4590   -6.1040 C.ar      1 JKQ        -0.0779
     10 C15        11.4080   60.8140   -6.1920 C.ar      1 JKQ         0.0595
     11 C17        11.6970   59.9110   -8.2620 C.2       1 JKQ        -0.0658
     12 C1          8.7980   56.1260   -2.7530 C.3       1 JKQ        -0.0514
     13 O1         17.5290   56.4090   -7.2750 O.co2     1 JKQ        -0.5666
     14 S1         11.8390   55.3100   -2.2900 S.3       1 JKQ        -0.0031
     15 C2          9.8510   57.2230   -2.6860 C.3       1 JKQ        -0.0031
     16 N2         15.6070   55.8100   -4.5580 N.ar      1 JKQ        -0.2679
     17 O2         15.4040   55.9440   -7.7150 O.co2     1 JKQ        -0.5666
     18 C3         11.2210   56.7530   -3.0260 C.2       1 JKQ         0.0346
     19 N4         11.2170   61.7890   -7.1460 N.pl3     1 JKQ        -0.2819
     20 C9         15.8960   57.9340   -6.4990 C.3       1 JKQ         0.0903
     21 C11        16.3050   56.6530   -7.2160 C.2       1 JKQ         0.0602
     22 C12        11.9280   58.5350   -4.7120 C.ar      1 JKQ        -0.0557
     23 C14        11.7150   59.6130   -6.8690 C.ar      1 JKQ        -0.0340
     24 C16        11.4030   61.2310   -8.3860 C.2       1 JKQ         0.0204
     25 C18        11.3410   60.8840   -4.7970 C.ar      1 JKQ        -0.0469
     26 C19        11.6050   59.7410   -4.0710 C.ar      1 JKQ        -0.0763
     27 H1         14.1618   58.5647   -5.4496 H         1 JKQ         0.1874
     28 H2         16.2674   54.0760   -3.6240 H         1 JKQ         0.0988
     29 H3         16.6569   59.3372   -7.9215 H         1 JKQ         0.0270
     30 H4         15.9141   60.0717   -6.4602 H         1 JKQ         0.0270
     31 H5         14.8708   59.3489   -7.7314 H         1 JKQ         0.0270
     32 H6         12.1528   57.5131   -6.5939 H         1 JKQ         0.0468
     33 H7         11.8840   59.2112   -9.0752 H         1 JKQ         0.0280
     34 H8          7.8152   56.5447   -2.4907 H         1 JKQ         0.0259
     35 H9          9.0566   55.3257   -2.0440 H         1 JKQ         0.0259
     36 H10         8.7611   55.7149   -3.7726 H         1 JKQ         0.0259
     37 H11         9.8661   57.6290   -1.6638 H         1 JKQ         0.0483
     38 H12         9.5706   58.0182   -3.3924 H         1 JKQ         0.0483
     39 H13        10.9750   62.7727   -6.9598 H         1 JKQ         0.2261
     40 H14        16.7735   58.0848   -5.8531 H         1 JKQ         0.0728
     41 H15        11.3261   61.7678   -9.3304 H         1 JKQ         0.0930
     42 H16        11.0880   61.8128   -4.2987 H         1 JKQ         0.0538
     43 H17        11.5623   59.7749   -2.9884 H         1 JKQ         0.0493
@<TRIPOS>BOND
     1    5    1 ar 
     2    6    1 ar 
     3    2    7 1  
     4   20    2 1  
     5    4    3 1  
     6    3   18 2  
     7    3   22 1  
     8    4    5 ar 
     9    7    4 ar 
    10    5   14 1  
    11   16    6 ar 
    12    7   16 ar 
    13   20    8 1  
    14   22    9 ar 
    15    9   23 ar 
    16   10   19 1  
    17   23   10 ar 
    18   10   25 ar 
    19   23   11 1  
    20   11   24 2  
    21   15   12 1  
    22   21   13 ar 
    23   14   18 1  
    24   18   15 1  
    25   21   17 ar 
    26   24   19 1  
    27   20   21 1  
    28   22   26 ar 
    29   25   26 ar 
    30    2   27 1  
    31    6   28 1  
    32    8   29 1  
    33    8   30 1  
    34    8   31 1  
    35    9   32 1  
    36   11   33 1  
    37   12   34 1  
    38   12   35 1  
    39   12   36 1  
    40   15   37 1  
    41   15   38 1  
    42   19   39 1  
    43   20   40 1  
    44   24   41 1  
    45   25   42 1  
    46   26   43 1  
@<TRIPOS>SUBSTRUCTURE
     1 JKQ         1

