### 
### Created by X-TOOL on Mon Aug  2 16:16:39 2021
### 

@<TRIPOS>MOLECULE
6qxu_ligand
   37    39     1     0     0
SMALL
GAST_HUCK


@<TRIPOS>ATOM
      1 C1        -29.1120  -15.6510    4.5170 C.ar      1 JKN         0.1504
      2 C2        -28.3110  -16.0920    3.4610 C.ar      1 JKN         0.0697
      3 C3        -28.8570  -15.9150    5.8210 C.ar      1 JKN         0.0081
      4 C7        -26.9760  -17.2880    5.1190 C.ar      1 JKN        -0.0142
      5 C8        -26.4550  -17.5260    2.6880 C.2       1 JKN         0.2340
      6 C11       -27.7720  -16.1770    1.2330 C.2       1 JKN         0.1801
      7 C12       -27.9900  -15.7160   -0.1330 C.ar      1 JKN         0.0685
      8 C13       -29.2070  -15.0790   -0.4180 C.ar      1 JKN        -0.0158
      9 C14       -29.4460  -14.6340   -1.7080 C.ar      1 JKN        -0.0354
     10 C15       -28.4830  -14.6940   -2.7130 C.ar      1 JKN        -0.0261
     11 C16       -27.2430  -15.2750   -2.4210 C.ar      1 JKN        -0.0354
     12 C22       -29.8590  -14.9130   -4.8120 C.3       1 JKN        -0.0637
     13 C4        -27.2480  -16.9780    3.7850 C.ar      1 JKN         0.0666
     14 N5        -28.5310  -15.7180    2.1930 N.2       1 JKN        -0.2757
     15 C6        -27.8080  -16.7830    6.1160 C.ar      1 JKN         0.1330
     16 N9        -26.7790  -17.1040    1.4580 N.am      1 JKN        -0.1981
     17 O10       -25.5600  -18.3720    2.8930 O.2       1 JKN        -0.3859
     18 C17       -27.0020  -15.7650   -1.1320 C.ar      1 JKN        -0.0158
     19 C18       -28.7330  -14.1380   -4.1110 C.3       1 JKN         0.0458
     20 O19       -27.5770  -14.2810   -4.9470 O.3       1 JKN        -0.4289
     21 F20       -30.1150  -14.8040    4.2040 F         1 JKN        -0.1833
     22 F21       -27.5420  -17.0510    7.4070 F         1 JKN        -0.1854
     23 C23       -29.0710  -12.6410   -4.0710 C.3       1 JKN        -0.0637
     24 H1        -29.4499  -15.4655    6.6093 H         1 JKN         0.0617
     25 H2        -26.1286  -17.9134    5.3756 H         1 JKN         0.0611
     26 H3        -29.9491  -14.9371    0.3593 H         1 JKN         0.0744
     27 H4        -30.4207  -14.2229   -1.9447 H         1 JKN         0.0842
     28 H5        -26.4774  -15.3447   -3.1853 H         1 JKN         0.0842
     29 H6        -30.0213  -14.4952   -5.8166 H         1 JKN         0.0148
     30 H7        -30.7850  -14.8258   -4.2247 H         1 JKN         0.0148
     31 H8        -29.5770  -15.9728   -4.8969 H         1 JKN         0.0148
     32 H9        -26.2812  -17.4761    0.6746 H         1 JKN         0.2479
     33 H10       -26.0329  -16.1913   -0.8992 H         1 JKN         0.0744
     34 H11       -27.7616  -13.9185   -5.8055 H         1 JKN         0.1943
     35 H12       -28.2594  -12.0952   -3.5676 H         1 JKN         0.0148
     36 H13       -30.0106  -12.4919   -3.5189 H         1 JKN         0.0148
     37 H14       -29.1850  -12.2633   -5.0978 H         1 JKN         0.0148
@<TRIPOS>BOND
     1    2    1 ar 
     2    1    3 ar 
     3    1   21 1  
     4    2   13 ar 
     5   14    2 1  
     6    3   15 ar 
     7   13    4 ar 
     8    4   15 ar 
     9   13    5 1  
    10    5   16 am 
    11    5   17 2  
    12    6    7 1  
    13    6   14 2  
    14    6   16 1  
    15    7    8 ar 
    16    7   18 ar 
    17    8    9 ar 
    18    9   10 ar 
    19   10   11 ar 
    20   10   19 1  
    21   11   18 ar 
    22   19   12 1  
    23   15   22 1  
    24   19   20 1  
    25   19   23 1  
    26    3   24 1  
    27    4   25 1  
    28    8   26 1  
    29    9   27 1  
    30   11   28 1  
    31   12   29 1  
    32   12   30 1  
    33   12   31 1  
    34   16   32 1  
    35   18   33 1  
    36   20   34 1  
    37   23   35 1  
    38   23   36 1  
    39   23   37 1  
@<TRIPOS>SUBSTRUCTURE
     1 JKN         1

