### 
### Created by X-TOOL on Mon Aug  2 16:16:40 2021
### 

@<TRIPOS>MOLECULE
6qyk_ligand
   42    45     1     0     0
SMALL
GAST_HUCK


@<TRIPOS>ATOM
      1 C10        12.0090   56.3380   -3.8300 C.2       1 JLB        -0.0103
      2 C13         8.7570   55.5350   -2.6530 C.3       1 JLB        -0.0513
      3 C15        12.9440   54.5680   -2.8110 C.ar      1 JLB         0.1111
      4 C17        14.9930   53.6250   -3.2940 C.ar      1 JLB         0.0599
      5 C20        11.1760   59.8200   -4.9710 C.ar      1 JLB        -0.0470
      6 C21        11.1880   59.6520   -6.3500 C.ar      1 JLB         0.0595
      7 C22        11.4530   58.4050   -6.8950 C.ar      1 JLB        -0.0340
      8 C24        11.3810   58.5280   -8.2610 C.2       1 JLB        -0.0658
      9 C26        11.0780   59.8540   -8.5260 C.2       1 JLB         0.0204
     10 N01        15.1880   54.5170   -4.2490 N.ar      1 JLB        -0.2561
     11 C02        14.2620   55.4420   -4.5170 C.ar      1 JLB         0.1790
     12 O03        14.4570   56.3230   -5.4720 O.3       1 JLB        -0.2749
     13 C04        15.7500   56.4430   -6.0120 C.3       1 JLB         0.1368
     14 C05        15.9220   57.9120   -6.3000 C.3       1 JLB        -0.0211
     15 C06        15.8010   55.7090   -7.3410 C.2       1 JLB         0.0694
     16 O07        16.8310   55.0920   -7.5710 O.co2     1 JLB        -0.5660
     17 O08        14.8310   55.7560   -8.1220 O.co2     1 JLB        -0.5660
     18 C09        13.0980   55.4990   -3.8020 C.ar      1 JLB         0.0558
     19 C11        11.1300   55.9640   -2.8620 C.2       1 JLB         0.0357
     20 C12         9.8000   56.6320   -2.6260 C.3       1 JLB        -0.0026
     21 S14        11.6350   54.6910   -2.0460 S.3       1 JLB        -0.0014
     22 N16        13.8780   53.6510   -2.5890 N.ar      1 JLB        -0.2773
     23 C18        11.7380   57.4810   -4.6980 C.ar      1 JLB        -0.0555
     24 C19        11.4750   58.7420   -4.1500 C.ar      1 JLB        -0.0763
     25 C23        11.7180   57.3200   -6.0840 C.ar      1 JLB        -0.0779
     26 N25        10.9640   60.5000   -7.3590 N.pl3     1 JLB        -0.2819
     27 H1          7.7614   55.9714   -2.4847 H         1 JLB         0.0259
     28 H2          8.9747   54.8025   -1.8618 H         1 JLB         0.0259
     29 H3          8.7769   55.0341   -3.6321 H         1 JLB         0.0259
     30 H4         15.7473   52.8736   -3.0902 H         1 JLB         0.0996
     31 H5         10.9351   60.7850   -4.5400 H         1 JLB         0.0538
     32 H6         11.5326   57.7368   -8.9938 H         1 JLB         0.0280
     33 H7         10.9539   60.2949   -9.5140 H         1 JLB         0.0930
     34 H8         16.5167   56.0661   -5.3191 H         1 JLB         0.0831
     35 H9         16.9197   58.0872   -6.7289 H         1 JLB         0.0277
     36 H10        15.8192   58.4834   -5.3657 H         1 JLB         0.0277
     37 H11        15.1529   58.2379   -7.0157 H         1 JLB         0.0277
     38 H12         9.7962   57.1360   -1.6483 H         1 JLB         0.0486
     39 H13         9.5984   57.3676   -3.4186 H         1 JLB         0.0486
     40 H14        11.5052   58.8775   -3.0749 H         1 JLB         0.0493
     41 H15        11.9097   56.3471   -6.5218 H         1 JLB         0.0468
     42 H16        10.7379   61.4994   -7.2543 H         1 JLB         0.2261
@<TRIPOS>BOND
     1    1   18 1  
     2    1   19 2  
     3   23    1 1  
     4   20    2 1  
     5   18    3 ar 
     6   21    3 1  
     7    3   22 ar 
     8   10    4 ar 
     9   22    4 ar 
    10    5    6 ar 
    11   24    5 ar 
    12    6    7 ar 
    13    6   26 1  
    14    7    8 1  
    15    7   25 ar 
    16    9    8 2  
    17   26    9 1  
    18   11   10 ar 
    19   11   12 1  
    20   18   11 ar 
    21   12   13 1  
    22   13   14 1  
    23   13   15 1  
    24   15   16 ar 
    25   15   17 ar 
    26   19   20 1  
    27   19   21 1  
    28   23   24 ar 
    29   23   25 ar 
    30    2   27 1  
    31    2   28 1  
    32    2   29 1  
    33    4   30 1  
    34    5   31 1  
    35    8   32 1  
    36    9   33 1  
    37   13   34 1  
    38   14   35 1  
    39   14   36 1  
    40   14   37 1  
    41   20   38 1  
    42   20   39 1  
    43   24   40 1  
    44   25   41 1  
    45   26   42 1  
@<TRIPOS>SUBSTRUCTURE
     1 JLB         1

