### 
### Created by X-TOOL on Mon Aug  2 16:16:40 2021
### 

@<TRIPOS>MOLECULE
6qyl_ligand
   53    57     1     0     0
SMALL
GAST_HUCK


@<TRIPOS>ATOM
      1 C5        -13.4930   11.7300   -4.1730 C.ar      1 JLE         0.0454
      2 C6        -13.5420   12.3720   -2.9180 C.ar      1 JLE         0.1081
      3 C4        -14.6080   11.8800   -5.0120 C.ar      1 JLE         0.1248
      4 C2        -15.6580   13.1910   -3.3750 C.ar      1 JLE         0.0558
      5 C8        -11.4680   11.1700   -3.2220 C.2       1 JLE         0.0378
      6 N3        -14.6080   13.0920   -2.5570 N.ar      1 JLE        -0.2806
      7 C25       -15.3070    6.3520   -7.5060 C.ar      1 JLE        -0.0687
      8 C24       -14.2000    7.1600   -7.7410 C.ar      1 JLE        -0.0686
      9 C23       -14.4000    8.5180   -7.9980 C.ar      1 JLE        -0.0602
     10 C22       -15.6870    9.0440   -8.0240 C.ar      1 JLE        -0.0391
     11 C21       -15.8950   10.5230   -8.3080 C.3       1 JLE         0.0163
     12 C9        -12.2920   11.0380   -4.3430 C.2       1 JLE        -0.0090
     13 N1        -15.6550   12.5920   -4.5780 N.ar      1 JLE        -0.2677
     14 C11       -11.0320    8.7480   -7.7460 C.ar      1 JLE        -0.0502
     15 C12       -11.2310   10.1240   -7.8710 C.ar      1 JLE        -0.0835
     16 C13       -11.6450   10.8750   -6.7620 C.ar      1 JLE        -0.0814
     17 C14       -11.2620    8.1160   -6.5150 C.ar      1 JLE         0.0570
     18 C10       -11.8820   10.2420   -5.5280 C.ar      1 JLE        -0.0508
     19 C15       -11.6840    8.8550   -5.4150 C.ar      1 JLE        -0.0285
     20 C20       -16.0570   11.2610   -6.9740 C.3       1 JLE         0.1026
     21 C17       -11.4640    6.7100   -4.8310 C.2       1 JLE         0.0188
     22 C16       -11.8020    7.9650   -4.3560 C.2       1 JLE        -0.0669
     23 C26       -16.6050    6.8890   -7.5240 C.ar      1 JLE        -0.0686
     24 C27       -16.8000    8.2450   -7.7680 C.ar      1 JLE        -0.0602
     25 C28       -16.4680   12.6640   -7.3710 C.2       1 JLE         0.0625
     26 O30       -15.6030   13.4470   -7.7540 O.co2     1 JLE        -0.5664
     27 O29       -17.6590   12.9950   -7.3110 O.co2     1 JLE        -0.5664
     28 N19       -14.7440   11.2950   -6.2700 N.pl3     1 JLE        -0.2852
     29 S7        -12.1510   12.1560   -1.9640 S.3       1 JLE        -0.0006
     30 C31       -10.0970   10.5540   -3.0870 C.3       1 JLE        -0.0016
     31 C32        -9.1990   11.5370   -2.3000 C.3       1 JLE        -0.0509
     32 N18       -11.1440    6.8370   -6.1250 N.pl3     1 JLE        -0.2828
     33 H1        -16.5253   13.7625   -3.0647 H         1 JLE         0.0990
     34 H2        -15.1668    5.2957   -7.3066 H         1 JLE         0.0559
     35 H3        -13.1995    6.7431   -7.7250 H         1 JLE         0.0599
     36 H4        -13.5487    9.1646   -8.1779 H         1 JLE         0.0557
     37 H5        -16.7997   10.6591   -8.9186 H         1 JLE         0.0467
     38 H6        -15.0242   10.9223   -8.8486 H         1 JLE         0.0467
     39 H7        -10.7000    8.1683   -8.5996 H         1 JLE         0.0486
     40 H8        -11.0655   10.6115   -8.8250 H         1 JLE         0.0515
     41 H9        -11.7829   11.9461   -6.8554 H         1 JLE         0.0450
     42 H10       -16.8192   10.7849   -6.3396 H         1 JLE         0.0755
     43 H11       -11.4591    5.7853   -4.2558 H         1 JLE         0.0907
     44 H12       -12.1048    8.2095   -3.3389 H         1 JLE         0.0284
     45 H13       -17.4583    6.2443   -7.3471 H         1 JLE         0.0599
     46 H14       -17.7967    8.6711   -7.7592 H         1 JLE         0.0557
     47 H15       -13.9187   10.8770   -6.7229 H         1 JLE         0.1875
     48 H16        -9.6690   10.3764   -4.0846 H         1 JLE         0.0491
     49 H17       -10.1695    9.6001   -2.5440 H         1 JLE         0.0491
     50 H18        -8.1927   11.1065   -2.1900 H         1 JLE         0.0260
     51 H19        -9.6330   11.7136   -1.3048 H         1 JLE         0.0260
     52 H20        -9.1325   12.4899   -2.8455 H         1 JLE         0.0260
     53 H21       -10.8487    6.0619   -6.7356 H         1 JLE         0.2261
@<TRIPOS>BOND
     1    1    2 ar 
     2    3    1 ar 
     3    1   12 1  
     4    2    6 ar 
     5    2   29 1  
     6    3   13 ar 
     7   28    3 1  
     8    4    6 ar 
     9   13    4 ar 
    10   12    5 2  
    11    5   29 1  
    12    5   30 1  
    13    8    7 ar 
    14    7   23 ar 
    15    9    8 ar 
    16   10    9 ar 
    17   11   10 1  
    18   10   24 ar 
    19   20   11 1  
    20   12   18 1  
    21   15   14 ar 
    22   17   14 ar 
    23   16   15 ar 
    24   18   16 ar 
    25   19   17 ar 
    26   17   32 1  
    27   18   19 ar 
    28   19   22 1  
    29   20   25 1  
    30   20   28 1  
    31   22   21 2  
    32   21   32 1  
    33   23   24 ar 
    34   25   26 ar 
    35   25   27 ar 
    36   30   31 1  
    37    4   33 1  
    38    7   34 1  
    39    8   35 1  
    40    9   36 1  
    41   11   37 1  
    42   11   38 1  
    43   14   39 1  
    44   15   40 1  
    45   16   41 1  
    46   20   42 1  
    47   21   43 1  
    48   22   44 1  
    49   23   45 1  
    50   24   46 1  
    51   28   47 1  
    52   30   48 1  
    53   30   49 1  
    54   31   50 1  
    55   31   51 1  
    56   31   52 1  
    57   32   53 1  
@<TRIPOS>SUBSTRUCTURE
     1 JLE         1

