### 
### Created by X-TOOL on Mon Aug  2 16:16:40 2021
### 

@<TRIPOS>MOLECULE
6qyn_ligand
   52    55     1     0     0
SMALL
GAST_HUCK


@<TRIPOS>ATOM
      1 C6         11.0320   56.3050   -3.1400 C.2       1 JL8         0.0322
      2 C8         13.1090   55.9570   -4.0190 C.ar      1 JL8         0.0548
      3 C10         9.6360   56.8970   -3.0040 C.3       1 JL8        -0.0044
      4 C13        15.4060   57.6410   -7.8490 C.3       1 JL8         0.0247
      5 C17        15.3140   59.0900   -7.4970 C.ar      1 JL8        -0.0384
      6 C21        14.8520   60.8140   -5.8880 C.ar      1 JL8        -0.0686
      7 C24        11.6110   57.6250   -5.1530 C.ar      1 JL8        -0.0451
      8 C28        11.1860   59.8970   -5.7870 C.ar      1 JL8         0.0636
      9 C2         15.2480   54.4310   -3.4620 C.ar      1 JL8         0.0599
     10 C9         13.1030   55.0970   -2.9300 C.ar      1 JL8         0.1102
     11 C18        14.9390   59.4720   -6.2080 C.ar      1 JL8        -0.0601
     12 C23        15.5870   60.0460   -8.4600 C.ar      1 JL8        -0.0601
     13 C27        11.1030   58.1510   -7.4410 C.ar      1 JL8        -0.0443
     14 C29        11.4150   57.2160   -6.4630 C.ar      1 JL8        -0.0770
     15 C30        11.7000   59.4060   -3.3600 C.3       1 JL8        -0.0344
     16 C25        11.4980   58.9620   -4.8140 C.ar      1 JL8        -0.0395
     17 CL         11.0330   61.5560   -5.3620 Cl        1 JL8        -0.0868
     18 C26        10.9930   59.4910   -7.1060 C.ar      1 JL8         0.0908
     19 O31        10.7040   60.3950   -8.0550 O.3       1 JL8        -0.3368
     20 C7         11.9070   56.6510   -4.1290 C.2       1 JL8        -0.0129
     21 C22         8.7160   55.9560   -2.2250 C.3       1 JL8        -0.0518
     22 S5         11.6920   55.1600   -2.0930 S.3       1 JL8        -0.0042
     23 N3         14.1570   54.3510   -2.6800 N.ar      1 JL8        -0.2775
     24 N1         15.2830   55.2690   -4.5260 N.ar      1 JL8        -0.2561
     25 C4         14.2280   56.0220   -4.8190 C.ar      1 JL8         0.1792
     26 O11        14.2540   56.8520   -5.8890 O.3       1 JL8        -0.2725
     27 C12        15.5180   56.7940   -6.6260 C.3       1 JL8         0.1489
     28 C14        15.9040   55.4140   -7.1610 C.2       1 JL8         0.0718
     29 O16        17.0770   55.1840   -7.4410 O.co2     1 JL8        -0.5659
     30 O15        15.0320   54.5650   -7.3960 O.co2     1 JL8        -0.5659
     31 C19        15.1280   61.7770   -6.8590 C.ar      1 JL8        -0.0687
     32 C20        15.4970   61.3870   -8.1440 C.ar      1 JL8        -0.0686
     33 H1          9.2158   57.0621   -4.0071 H         1 JL8         0.0478
     34 H2          9.7026   57.8573   -2.4717 H         1 JL8         0.0478
     35 H3         16.2934   57.4805   -8.4789 H         1 JL8         0.0474
     36 H4         14.5034   57.3492   -8.4059 H         1 JL8         0.0474
     37 H5         14.5703   61.1171   -4.8861 H         1 JL8         0.0599
     38 H6         16.1121   53.8160   -3.2378 H         1 JL8         0.0996
     39 H7         14.7168   58.7190   -5.4605 H         1 JL8         0.0557
     40 H8         15.8711   59.7422   -9.4610 H         1 JL8         0.0557
     41 H9         10.9457   57.8330   -8.4653 H         1 JL8         0.0477
     42 H10        11.5052   56.1676   -6.7235 H         1 JL8         0.0524
     43 H11        11.9392   58.5301   -2.7390 H         1 JL8         0.0386
     44 H12        10.7780   59.8776   -2.9891 H         1 JL8         0.0386
     45 H13        12.5277   60.1287   -3.3089 H         1 JL8         0.0386
     46 H14        10.6647   61.2604   -7.6650 H         1 JL8         0.2472
     47 H15         7.7161   56.4069   -2.1415 H         1 JL8         0.0258
     48 H16         9.1284   55.7898   -1.2189 H         1 JL8         0.0258
     49 H17         8.6416   54.9946   -2.7543 H         1 JL8         0.0258
     50 H18        16.3187   57.1657   -5.9697 H         1 JL8         0.0857
     51 H19        15.0551   62.8302   -6.6129 H         1 JL8         0.0559
     52 H20        15.7137   62.1366   -8.8964 H         1 JL8         0.0599
@<TRIPOS>BOND
     1    1    3 1  
     2   20    1 2  
     3    1   22 1  
     4    2   10 ar 
     5    2   20 1  
     6   25    2 ar 
     7    3   21 1  
     8    4    5 1  
     9   27    4 1  
    10    5   11 ar 
    11    5   12 ar 
    12   11    6 ar 
    13    6   31 ar 
    14    7   14 ar 
    15    7   16 ar 
    16   20    7 1  
    17   16    8 ar 
    18    8   17 1  
    19    8   18 ar 
    20    9   23 ar 
    21   24    9 ar 
    22   10   22 1  
    23   10   23 ar 
    24   12   32 ar 
    25   14   13 ar 
    26   13   18 ar 
    27   16   15 1  
    28   18   19 1  
    29   25   24 ar 
    30   26   25 1  
    31   26   27 1  
    32   27   28 1  
    33   28   29 ar 
    34   28   30 ar 
    35   31   32 ar 
    36    3   33 1  
    37    3   34 1  
    38    4   35 1  
    39    4   36 1  
    40    6   37 1  
    41    9   38 1  
    42   11   39 1  
    43   12   40 1  
    44   13   41 1  
    45   14   42 1  
    46   15   43 1  
    47   15   44 1  
    48   15   45 1  
    49   19   46 1  
    50   21   47 1  
    51   21   48 1  
    52   21   49 1  
    53   27   50 1  
    54   31   51 1  
    55   32   52 1  
@<TRIPOS>SUBSTRUCTURE
     1 JL8         1

