### 
### Created by X-TOOL on Mon Aug  2 16:16:41 2021
### 

@<TRIPOS>MOLECULE
6qyo_ligand
   77    81     1     0     0
SMALL
GAST_HUCK


@<TRIPOS>ATOM
      1 C10         9.1540   56.3450   -2.6260 C.3       1 JLH        -0.0044
      2 C13        15.0390   56.5540   -7.4980 C.3       1 JLH         0.0247
      3 C17        15.0290   57.8940   -6.9020 C.ar      1 JLH        -0.0384
      4 C20        16.2340   59.7180   -6.0420 C.ar      1 JLH        -0.0686
      5 C21        13.7540   59.7180   -6.0480 C.ar      1 JLH        -0.0686
      6 C22         8.5470   56.1280   -1.2570 C.3       1 JLH        -0.0518
      7 C24        11.0490   57.0180   -4.7570 C.ar      1 JLH        -0.0451
      8 C26        10.3770   58.8620   -6.7660 C.ar      1 JLH         0.0946
      9 C28        10.6540   59.2630   -5.4650 C.ar      1 JLH         0.0639
     10 CL         10.5770   60.8820   -5.0910 Cl        1 JLH        -0.0868
     11 N01        14.5630   54.1770   -4.1730 N.ar      1 JLH        -0.2561
     12 C02        14.4250   53.3710   -3.1700 C.ar      1 JLH         0.0599
     13 N03        13.3450   53.4380   -2.4030 N.ar      1 JLH        -0.2775
     14 C04        13.6290   55.1020   -4.4710 C.ar      1 JLH         0.1792
     15 S05        11.1430   54.3710   -1.8500 S.3       1 JLH        -0.0042
     16 C06        10.5090   55.6670   -2.7770 C.2       1 JLH         0.0322
     17 C07        11.3680   55.9890   -3.7690 C.2       1 JLH        -0.0129
     18 C08        12.4930   55.1820   -3.7030 C.ar      1 JLH         0.0548
     19 C09        12.3860   54.2900   -2.6630 C.ar      1 JLH         0.1102
     20 O11        13.8000   55.9180   -5.5250 O.3       1 JLH        -0.2725
     21 C12        14.8940   55.5620   -6.3960 C.3       1 JLH         0.1489
     22 C14        14.6400   54.2650   -7.1500 C.2       1 JLH         0.0718
     23 O15        13.4950   53.7280   -7.1260 O.co2     1 JLH        -0.5659
     24 O16        15.6400   53.7790   -7.6910 O.co2     1 JLH        -0.5659
     25 C18        13.7870   58.4670   -6.6270 C.ar      1 JLH        -0.0601
     26 C19        14.9900   60.3300   -5.7850 C.ar      1 JLH        -0.0687
     27 C23        16.2750   58.4730   -6.6230 C.ar      1 JLH        -0.0601
     28 C25        10.9990   58.3510   -4.4560 C.ar      1 JLH        -0.0395
     29 C27        10.4380   57.5030   -7.0370 C.ar      1 JLH        -0.0441
     30 C29        10.7500   56.5980   -6.0590 C.ar      1 JLH        -0.0770
     31 C30        11.2900   58.8480   -3.0500 C.3       1 JLH        -0.0344
     32 O31        10.0870   59.7820   -7.7250 O.3       1 JLH        -0.3164
     33 C32         9.1820   59.2500   -8.6890 C.3       1 JLH         0.1093
     34 C33         9.0300   60.1550   -9.8770 C.3       1 JLH        -0.0031
     35 N34         8.3270   61.3970   -9.5750 N.4       1 JLH         0.2446
     36 C35         6.9840   61.4760  -10.1780 C.3       1 JLH         0.0095
     37 C36         6.4720   62.9180  -10.0480 C.3       1 JLH         0.0092
     38 N37         6.6280   63.4800   -8.6760 N.4       1 JLH         0.2405
     39 C38         7.9130   63.1330   -8.0170 C.3       1 JLH         0.0092
     40 C39         8.1990   61.7240   -8.1380 C.3       1 JLH         0.0095
     41 C40         6.5050   64.9490   -8.6910 C.3       1 JLH        -0.0427
     42 H1          9.2801   57.4255   -2.7888 H         1 JLH         0.0478
     43 H2          8.4692   55.9374   -3.3842 H         1 JLH         0.0478
     44 H3         15.9884   56.3877   -8.0281 H         1 JLH         0.0474
     45 H4         14.2020   56.4528   -8.2045 H         1 JLH         0.0474
     46 H5         17.1548   60.2276   -5.7823 H         1 JLH         0.0599
     47 H6         12.8168   60.2065   -5.8069 H         1 JLH         0.0599
     48 H7          7.5733   56.6369   -1.2028 H         1 JLH         0.0258
     49 H8          9.2186   56.5387   -0.4888 H         1 JLH         0.0258
     50 H9          8.4077   55.0506   -1.0842 H         1 JLH         0.0258
     51 H10        15.1948   52.6385   -2.9559 H         1 JLH         0.0996
     52 H11        15.8178   55.4924   -5.8029 H         1 JLH         0.0857
     53 H12        12.8691   57.9409   -6.8631 H         1 JLH         0.0557
     54 H13        14.9877   61.3277   -5.3611 H         1 JLH         0.0559
     55 H14        17.2090   57.9719   -6.8504 H         1 JLH         0.0557
     56 H15        10.2348   57.1513   -8.0420 H         1 JLH         0.0477
     57 H16        10.7659   55.5403   -6.2957 H         1 JLH         0.0524
     58 H17        11.5400   57.9938   -2.4036 H         1 JLH         0.0386
     59 H18        10.4027   59.3618   -2.6517 H         1 JLH         0.0386
     60 H19        12.1380   59.5481   -3.0767 H         1 JLH         0.0386
     61 H20         8.1978   59.1162   -8.2163 H         1 JLH         0.0667
     62 H21         9.5601   58.2753   -9.0312 H         1 JLH         0.0667
     63 H22         8.4684   59.6172  -10.6550 H         1 JLH         0.0841
     64 H23        10.0323   60.4051  -10.2549 H         1 JLH         0.0841
     65 H24         8.8812   62.1296   -9.9900 H         1 JLH         0.2039
     66 H25         6.3013   60.7918   -9.6529 H         1 JLH         0.0868
     67 H26         7.0379   61.1964  -11.2405 H         1 JLH         0.0868
     68 H27         5.4043   62.9341  -10.3121 H         1 JLH         0.0868
     69 H28         7.0331   63.5519  -10.7503 H         1 JLH         0.0868
     70 H29         5.8817   63.1033   -8.1127 H         1 JLH         0.2035
     71 H30         7.8517   63.3961   -6.9507 H         1 JLH         0.0868
     72 H31         8.7246   63.7055   -8.4899 H         1 JLH         0.0868
     73 H32         9.1396   61.4896   -7.6181 H         1 JLH         0.0868
     74 H33         7.3795   61.1389   -7.6951 H         1 JLH         0.0868
     75 H34         5.5590   65.2328   -9.1752 H         1 JLH         0.0778
     76 H35         7.3474   65.3818   -9.2504 H         1 JLH         0.0778
     77 H36         6.5167   65.3285   -7.6586 H         1 JLH         0.0778
@<TRIPOS>BOND
     1    1    6 1  
     2   16    1 1  
     3    2    3 1  
     4   21    2 1  
     5    3   25 ar 
     6    3   27 ar 
     7    4   26 ar 
     8   27    4 ar 
     9   25    5 ar 
    10    5   26 ar 
    11   17    7 1  
    12    7   28 ar 
    13    7   30 ar 
    14    9    8 ar 
    15    8   29 ar 
    16    8   32 1  
    17    9   10 1  
    18   28    9 ar 
    19   11   12 ar 
    20   14   11 ar 
    21   12   13 ar 
    22   19   13 ar 
    23   14   18 ar 
    24   20   14 1  
    25   15   16 1  
    26   19   15 1  
    27   17   16 2  
    28   18   17 1  
    29   18   19 ar 
    30   20   21 1  
    31   21   22 1  
    32   22   23 ar 
    33   22   24 ar 
    34   28   31 1  
    35   29   30 ar 
    36   32   33 1  
    37   33   34 1  
    38   34   35 1  
    39   35   36 1  
    40   35   40 1  
    41   36   37 1  
    42   37   38 1  
    43   38   39 1  
    44   38   41 1  
    45   39   40 1  
    46    1   42 1  
    47    1   43 1  
    48    2   44 1  
    49    2   45 1  
    50    4   46 1  
    51    5   47 1  
    52    6   48 1  
    53    6   49 1  
    54    6   50 1  
    55   12   51 1  
    56   21   52 1  
    57   25   53 1  
    58   26   54 1  
    59   27   55 1  
    60   29   56 1  
    61   30   57 1  
    62   31   58 1  
    63   31   59 1  
    64   31   60 1  
    65   33   61 1  
    66   33   62 1  
    67   34   63 1  
    68   34   64 1  
    69   35   65 1  
    70   36   66 1  
    71   36   67 1  
    72   37   68 1  
    73   37   69 1  
    74   38   70 1  
    75   39   71 1  
    76   39   72 1  
    77   40   73 1  
    78   40   74 1  
    79   41   75 1  
    80   41   76 1  
    81   41   77 1  
@<TRIPOS>SUBSTRUCTURE
     1 JLH         1

