### 
### Created by X-TOOL on Mon Aug  2 16:16:41 2021
### 

@<TRIPOS>MOLECULE
6qyp_ligand
   70    74     1     0     0
SMALL
GAST_HUCK


@<TRIPOS>ATOM
      1 C4          4.2880    0.5830   -5.9160 C.ar      1 JL5         0.1792
      2 C8          5.0720    1.5650   -6.5100 C.ar      1 JL5         0.0546
      3 N3          3.7380    1.4020   -8.4420 N.ar      1 JL5        -0.2775
      4 C2          2.9940    0.4770   -7.8220 C.ar      1 JL5         0.0599
      5 N1          3.2700    0.0510   -6.5900 N.ar      1 JL5        -0.2561
      6 C6          6.6900    3.1530   -6.9030 C.2       1 JL5         0.0321
      7 C12         3.6760   -0.8390   -4.1160 C.3       1 JL5         0.1489
      8 C13         3.9130   -0.9100   -2.6310 C.3       1 JL5         0.0247
      9 C14         3.9630   -2.1830   -4.8070 C.2       1 JL5         0.0718
     10 C7          6.1750    2.2460   -6.0030 C.2       1 JL5        -0.0161
     11 C9          4.7720    1.9560   -7.8010 C.ar      1 JL5         0.1103
     12 C10         7.9020    4.0470   -6.6360 C.3       1 JL5        -0.0044
     13 C34         9.8620   -0.8530   -4.1060 C.3       1 JL5         0.0635
     14 C35        10.6270   -2.1440   -3.7030 C.3       1 JL5        -0.0126
     15 N36         9.6820   -3.1370   -3.2060 N.4       1 JL5         0.2358
     16 C39        10.3530   -4.4270   -3.0100 C.3       1 JL5        -0.0430
     17 C37         9.1640   -2.6680   -1.9320 C.3       1 JL5        -0.0126
     18 C38         8.1910   -1.5380   -2.1740 C.3       1 JL5         0.0635
     19 N32         8.7930   -0.4870   -3.0740 N.pl3     1 JL5        -0.3063
     20 C26         8.1350    0.7420   -3.1950 C.ar      1 JL5         0.0594
     21 C28         7.4830    0.9550   -4.4080 C.ar      1 JL5        -0.0594
     22 C25         8.0400    1.7110   -2.2060 C.ar      1 JL5         0.1095
     23 O30         8.5980    1.6060   -1.0080 O.3       1 JL5        -0.3420
     24 C27         7.3300    2.8620   -2.4520 C.ar      1 JL5         0.0540
     25 CL          7.2850    4.0270   -1.1800 Cl        1 JL5        -0.0901
     26 C24         6.7050    3.0820   -3.6820 C.ar      1 JL5        -0.0521
     27 C29         5.9470    4.3760   -3.9300 C.3       1 JL5        -0.0402
     28 C23         6.7900    2.1000   -4.6690 C.ar      1 JL5        -0.0570
     29 C22         8.4540    4.5100   -7.9720 C.3       1 JL5        -0.0518
     30 S5          5.8400    3.1530   -8.3710 S.3       1 JL5        -0.0041
     31 O11         4.5240    0.2090   -4.6420 O.3       1 JL5        -0.2725
     32 O16         4.9970   -2.2670   -5.4280 O.co2     1 JL5        -0.5659
     33 O15         3.1670   -3.1240   -4.7870 O.co2     1 JL5        -0.5659
     34 C17         3.3870    0.3490   -1.9160 C.ar      1 JL5        -0.0384
     35 C18         4.2740    1.3190   -1.5170 C.ar      1 JL5        -0.0601
     36 C21         3.7960    2.4320   -0.8510 C.ar      1 JL5        -0.0686
     37 C19         2.4450    2.6210   -0.6210 C.ar      1 JL5        -0.0687
     38 C20         1.5350    1.6610   -1.0380 C.ar      1 JL5        -0.0686
     39 C33         2.0240    0.5230   -1.6670 C.ar      1 JL5        -0.0601
     40 H1          2.1378    0.0605   -8.3402 H         1 JL5         0.0996
     41 H2          2.6235   -0.5760   -4.2978 H         1 JL5         0.0857
     42 H3          4.9933   -1.0018   -2.4451 H         1 JL5         0.0474
     43 H4          3.3952   -1.7928   -2.2279 H         1 JL5         0.0474
     44 H5          8.6711    3.4789   -6.0922 H         1 JL5         0.0478
     45 H6          7.5975    4.9179   -6.0371 H         1 JL5         0.0478
     46 H7          9.3773   -1.0145   -5.0802 H         1 JL5         0.0560
     47 H8         10.5795   -0.0231   -4.1865 H         1 JL5         0.0560
     48 H9         11.3567   -1.9063   -2.9149 H         1 JL5         0.0833
     49 H10        11.1535   -2.5468   -4.5808 H         1 JL5         0.0833
     50 H11         8.9269   -3.2474   -3.8645 H         1 JL5         0.2032
     51 H12         9.6277   -5.1643   -2.6354 H         1 JL5         0.0778
     52 H13        11.1671   -4.3097   -2.2796 H         1 JL5         0.0778
     53 H14        10.7672   -4.7742   -3.9681 H         1 JL5         0.0778
     54 H15         9.9951   -2.3096   -1.3069 H         1 JL5         0.0833
     55 H16         8.6485   -3.4931   -1.4188 H         1 JL5         0.0833
     56 H17         7.9277   -1.0778   -1.2102 H         1 JL5         0.0560
     57 H18         7.2837   -1.9403   -2.6482 H         1 JL5         0.0560
     58 H19         7.5282    0.1848   -5.1695 H         1 JL5         0.0412
     59 H20         8.4020    2.3840   -0.4993 H         1 JL5         0.2430
     60 H21         6.0006    5.0100   -3.0327 H         1 JL5         0.0362
     61 H22         4.8948    4.1473   -4.1550 H         1 JL5         0.0362
     62 H23         6.3970    4.9072   -4.7816 H         1 JL5         0.0362
     63 H24         9.3283    5.1559   -7.8035 H         1 JL5         0.0258
     64 H25         7.6801    5.0744   -8.5128 H         1 JL5         0.0258
     65 H26         8.7537    3.6353   -8.5679 H         1 JL5         0.0258
     66 H27         5.3333    1.2132   -1.7214 H         1 JL5         0.0557
     67 H28         4.4996    3.1777   -0.4990 H         1 JL5         0.0599
     68 H29         2.0989    3.5160   -0.1168 H         1 JL5         0.0559
     69 H30         0.4714    1.7950   -0.8775 H         1 JL5         0.0599
     70 H31         1.3289   -0.2506   -1.9727 H         1 JL5         0.0557
@<TRIPOS>BOND
     1    2    1 ar 
     2    1    5 ar 
     3    1   31 1  
     4   10    2 1  
     5    2   11 ar 
     6    3    4 ar 
     7   11    3 ar 
     8    5    4 ar 
     9   10    6 2  
    10    6   12 1  
    11    6   30 1  
    12    7    8 1  
    13    7    9 1  
    14   31    7 1  
    15    8   34 1  
    16    9   32 ar 
    17    9   33 ar 
    18   28   10 1  
    19   30   11 1  
    20   12   29 1  
    21   13   14 1  
    22   19   13 1  
    23   14   15 1  
    24   15   16 1  
    25   17   15 1  
    26   18   17 1  
    27   19   18 1  
    28   20   19 1  
    29   21   20 ar 
    30   20   22 ar 
    31   21   28 ar 
    32   22   23 1  
    33   22   24 ar 
    34   24   25 1  
    35   24   26 ar 
    36   26   27 1  
    37   26   28 ar 
    38   34   35 ar 
    39   34   39 ar 
    40   35   36 ar 
    41   36   37 ar 
    42   37   38 ar 
    43   38   39 ar 
    44    4   40 1  
    45    7   41 1  
    46    8   42 1  
    47    8   43 1  
    48   12   44 1  
    49   12   45 1  
    50   13   46 1  
    51   13   47 1  
    52   14   48 1  
    53   14   49 1  
    54   15   50 1  
    55   16   51 1  
    56   16   52 1  
    57   16   53 1  
    58   17   54 1  
    59   17   55 1  
    60   18   56 1  
    61   18   57 1  
    62   21   58 1  
    63   23   59 1  
    64   27   60 1  
    65   27   61 1  
    66   27   62 1  
    67   29   63 1  
    68   29   64 1  
    69   29   65 1  
    70   35   66 1  
    71   36   67 1  
    72   37   68 1  
    73   38   69 1  
    74   39   70 1  
@<TRIPOS>SUBSTRUCTURE
     1 JL5         1

