### 
### Created by X-TOOL on Mon Aug  2 16:16:41 2021
### 

@<TRIPOS>MOLECULE
6qz5_ligand
   53    57     1     0     0
SMALL
GAST_HUCK


@<TRIPOS>ATOM
      1 C5          4.6700    1.6370   -6.2580 C.ar      1 JLE         0.0454
      2 C6          4.3610    2.1140   -7.5230 C.ar      1 JLE         0.1081
      3 C4          3.8580    0.6230   -5.7460 C.ar      1 JLE         0.1248
      4 C2          2.6110    0.6310   -7.6870 C.ar      1 JLE         0.0558
      5 C8          6.2370    3.2970   -6.5970 C.2       1 JLE         0.0378
      6 N3          3.3460    1.6140   -8.2310 N.ar      1 JLE        -0.2806
      7 C25         2.2630    2.8900   -0.7230 C.ar      1 JLE        -0.0687
      8 C24         3.6220    2.5580   -0.8430 C.ar      1 JLE        -0.0686
      9 C23         3.9170    1.3350   -1.3710 C.ar      1 JLE        -0.0602
     10 C22         2.9370    0.4240   -1.7550 C.ar      1 JLE        -0.0391
     11 C21         3.3570   -0.9350   -2.3590 C.3       1 JLE         0.0163
     12 C9          5.7670    2.3420   -5.7220 C.2       1 JLE        -0.0090
     13 N1          2.8740    0.1090   -6.4940 N.ar      1 JLE        -0.2677
     14 C11         7.7590    1.3360   -2.0670 C.ar      1 JLE        -0.0502
     15 C12         7.6220    0.4150   -3.0980 C.ar      1 JLE        -0.0835
     16 C13         6.9760    0.8010   -4.2740 C.ar      1 JLE        -0.0814
     17 C14         7.2140    2.6080   -2.2080 C.ar      1 JLE         0.0570
     18 C10         6.4270    2.0790   -4.4250 C.ar      1 JLE        -0.0508
     19 C15         6.5880    2.9900   -3.3900 C.ar      1 JLE        -0.0285
     20 C20         3.1090   -0.8670   -3.8990 C.3       1 JLE         0.1026
     21 C17         6.5970    4.7020   -1.9760 C.2       1 JLE         0.0188
     22 C16         6.1830    4.3050   -3.2370 C.2       1 JLE        -0.0669
     23 C26         1.2680    1.9730   -1.0540 C.ar      1 JLE        -0.0686
     24 C27         1.6100    0.7140   -1.5640 C.ar      1 JLE        -0.0602
     25 C28         3.4780   -2.2510   -4.5480 C.2       1 JLE         0.0625
     26 O30         4.5460   -2.4020   -5.1420 O.co2     1 JLE        -0.5664
     27 O29         2.6930   -3.1910   -4.4800 O.co2     1 JLE        -0.5664
     28 N19         4.0310    0.0860   -4.4670 N.pl3     1 JLE        -0.2852
     29 S7          5.3350    3.4070   -8.0370 S.3       1 JLE        -0.0006
     30 C31         7.4000    4.2220   -6.3680 C.3       1 JLE        -0.0016
     31 C32         8.2080    4.2890   -7.6170 C.3       1 JLE        -0.0509
     32 N18         7.2400    3.6710   -1.3760 N.pl3     1 JLE        -0.2828
     33 H1          1.7656    0.2462   -8.2459 H         1 JLE         0.0990
     34 H2          1.9838    3.8752   -0.3673 H         1 JLE         0.0559
     35 H3          4.4019    3.2427   -0.5301 H         1 JLE         0.0599
     36 H4          4.9583    1.0612   -1.4968 H         1 JLE         0.0557
     37 H5          2.7550   -1.7431   -1.9180 H         1 JLE         0.0467
     38 H6          4.4226   -1.1206   -2.1590 H         1 JLE         0.0467
     39 H7          8.2866    1.0654   -1.1595 H         1 JLE         0.0486
     40 H8          8.0118   -0.5908   -2.9908 H         1 JLE         0.0515
     41 H9          6.8978    0.0926   -5.0908 H         1 JLE         0.0450
     42 H10         2.0654   -0.5926   -4.1124 H         1 JLE         0.0755
     43 H11         6.4322    5.6850   -1.5372 H         1 JLE         0.0907
     44 H12         5.6443    4.9092   -3.9655 H         1 JLE         0.0284
     45 H13         0.2251    2.2347   -0.9164 H         1 JLE         0.0599
     46 H14         0.8435   -0.0145   -1.8023 H         1 JLE         0.0557
     47 H15         4.8458    0.3813   -3.9104 H         1 JLE         0.1875
     48 H16         8.0214    3.8391   -5.5450 H         1 JLE         0.0491
     49 H17         7.0301    5.2258   -6.1119 H         1 JLE         0.0491
     50 H18         9.0637    4.9631   -7.4644 H         1 JLE         0.0260
     51 H19         7.5830    4.6700   -8.4381 H         1 JLE         0.0260
     52 H20         8.5742    3.2834   -7.8712 H         1 JLE         0.0260
     53 H21         7.6751    3.6944   -0.4427 H         1 JLE         0.2261
@<TRIPOS>BOND
     1    1    2 ar 
     2    3    1 ar 
     3    1   12 1  
     4    2    6 ar 
     5    2   29 1  
     6    3   13 ar 
     7   28    3 1  
     8    4    6 ar 
     9   13    4 ar 
    10   12    5 2  
    11    5   29 1  
    12    5   30 1  
    13    8    7 ar 
    14    7   23 ar 
    15    9    8 ar 
    16   10    9 ar 
    17   11   10 1  
    18   10   24 ar 
    19   20   11 1  
    20   12   18 1  
    21   15   14 ar 
    22   17   14 ar 
    23   16   15 ar 
    24   18   16 ar 
    25   19   17 ar 
    26   17   32 1  
    27   18   19 ar 
    28   19   22 1  
    29   20   25 1  
    30   20   28 1  
    31   22   21 2  
    32   21   32 1  
    33   23   24 ar 
    34   25   26 ar 
    35   25   27 ar 
    36   30   31 1  
    37    4   33 1  
    38    7   34 1  
    39    8   35 1  
    40    9   36 1  
    41   11   37 1  
    42   11   38 1  
    43   14   39 1  
    44   15   40 1  
    45   16   41 1  
    46   20   42 1  
    47   21   43 1  
    48   22   44 1  
    49   23   45 1  
    50   24   46 1  
    51   28   47 1  
    52   30   48 1  
    53   30   49 1  
    54   31   50 1  
    55   31   51 1  
    56   31   52 1  
    57   32   53 1  
@<TRIPOS>SUBSTRUCTURE
     1 JLE         1

