### 
### Created by X-TOOL on Mon Aug  2 16:16:41 2021
### 

@<TRIPOS>MOLECULE
6qz6_ligand
   53    57     1     0     0
SMALL
GAST_HUCK


@<TRIPOS>ATOM
      1 C5          6.3940    1.8540   -6.4570 C.ar      1 JLE         0.0454
      2 C6          6.1630    2.0770   -7.8140 C.ar      1 JLE         0.1081
      3 C4          5.6160    0.8540   -5.8370 C.ar      1 JLE         0.1248
      4 C2          4.4810    0.5000   -7.8370 C.ar      1 JLE         0.0558
      5 C8          7.8970    3.4740   -7.0040 C.2       1 JLE         0.0378
      6 N3          5.2010    1.4180   -8.5500 N.ar      1 JLE        -0.2806
      7 C25         3.6860    2.8160   -0.5910 C.ar      1 JLE        -0.0687
      8 C24         5.0520    2.7080   -0.7950 C.ar      1 JLE        -0.0686
      9 C23         5.6190    1.5590   -1.4080 C.ar      1 JLE        -0.0602
     10 C22         4.7430    0.5320   -1.7540 C.ar      1 JLE        -0.0391
     11 C21         5.3190   -0.7250   -2.4660 C.3       1 JLE         0.0163
     12 C9          7.4470    2.6650   -5.9930 C.2       1 JLE        -0.0090
     13 N1          4.6460    0.2020   -6.5690 N.ar      1 JLE        -0.2677
     14 C11         8.8600    3.2710   -2.0150 C.ar      1 JLE        -0.0502
     15 C12         8.2160    4.2870   -2.7240 C.ar      1 JLE        -0.0835
     16 C13         7.7460    4.0620   -4.0180 C.ar      1 JLE        -0.0814
     17 C14         9.0560    2.0430   -2.5970 C.ar      1 JLE         0.0570
     18 C10         7.9490    2.8060   -4.6060 C.ar      1 JLE        -0.0508
     19 C15         8.6010    1.8150   -3.8940 C.ar      1 JLE        -0.0285
     20 C20         4.9480   -0.6430   -3.9170 C.3       1 JLE         0.1026
     21 C17         9.5360   -0.0090   -3.0850 C.2       1 JLE         0.0188
     22 C16         8.9340    0.5330   -4.2130 C.2       1 JLE        -0.0669
     23 C26         2.8000    1.8010   -0.9540 C.ar      1 JLE        -0.0686
     24 C27         3.3740    0.6210   -1.5060 C.ar      1 JLE        -0.0602
     25 C28         5.3320   -2.0130   -4.6290 C.2       1 JLE         0.0625
     26 O30         6.4510   -2.0840   -5.1370 O.co2     1 JLE        -0.5664
     27 O29         4.5430   -2.9870   -4.6070 O.co2     1 JLE        -0.5664
     28 N19         5.7050    0.5340   -4.5340 N.pl3     1 JLE        -0.2852
     29 S7          7.1640    3.2160   -8.4760 S.3       1 JLE        -0.0006
     30 C31         9.0170    4.5100   -6.9000 C.3       1 JLE        -0.0016
     31 C32         9.8900    4.4040   -8.0720 C.3       1 JLE        -0.0509
     32 N18         9.5670    0.9210   -2.1260 N.pl3     1 JLE        -0.2828
     33 H1          3.7004   -0.0319   -8.3687 H         1 JLE         0.0990
     34 H2          3.2930    3.7175   -0.1350 H         1 JLE         0.0559
     35 H3          5.7014    3.5169   -0.4804 H         1 JLE         0.0599
     36 H4          6.6836    1.4845   -1.5978 H         1 JLE         0.0557
     37 H5          4.8907   -1.6355   -2.0216 H         1 JLE         0.0467
     38 H6          6.4137   -0.7455   -2.3607 H         1 JLE         0.0467
     39 H7          9.2057    3.4520   -1.0037 H         1 JLE         0.0486
     40 H8          8.0800    5.2594   -2.2647 H         1 JLE         0.0515
     41 H9          7.2315    4.8468   -4.5606 H         1 JLE         0.0450
     42 H10         3.8657   -0.4741   -4.0169 H         1 JLE         0.0755
     43 H11         9.9195   -1.0244   -2.9966 H         1 JLE         0.0907
     44 H12         8.7621    0.0322   -5.1646 H         1 JLE         0.0284
     45 H13         1.7291    1.9057   -0.8224 H         1 JLE         0.0599
     46 H14         2.7351   -0.2235   -1.7377 H         1 JLE         0.0557
     47 H15         6.3085    1.1057   -3.9258 H         1 JLE         0.1875
     48 H16         9.6036    4.3257   -5.9879 H         1 JLE         0.0491
     49 H17         8.5807    5.5189   -6.8578 H         1 JLE         0.0491
     50 H18        10.6958    5.1491   -7.9975 H         1 JLE         0.0260
     51 H19         9.3034    4.5883   -8.9841 H         1 JLE         0.0260
     52 H20        10.3263    3.3951   -8.1142 H         1 JLE         0.0260
     53 H21         9.9312    0.7842   -1.1723 H         1 JLE         0.2261
@<TRIPOS>BOND
     1    1    2 ar 
     2    3    1 ar 
     3    1   12 1  
     4    2    6 ar 
     5    2   29 1  
     6    3   13 ar 
     7   28    3 1  
     8    4    6 ar 
     9   13    4 ar 
    10   12    5 2  
    11    5   29 1  
    12    5   30 1  
    13    8    7 ar 
    14    7   23 ar 
    15    9    8 ar 
    16   10    9 ar 
    17   11   10 1  
    18   10   24 ar 
    19   20   11 1  
    20   12   18 1  
    21   15   14 ar 
    22   17   14 ar 
    23   16   15 ar 
    24   18   16 ar 
    25   19   17 ar 
    26   17   32 1  
    27   18   19 ar 
    28   19   22 1  
    29   20   25 1  
    30   20   28 1  
    31   22   21 2  
    32   21   32 1  
    33   23   24 ar 
    34   25   26 ar 
    35   25   27 ar 
    36   30   31 1  
    37    4   33 1  
    38    7   34 1  
    39    8   35 1  
    40    9   36 1  
    41   11   37 1  
    42   11   38 1  
    43   14   39 1  
    44   15   40 1  
    45   16   41 1  
    46   20   42 1  
    47   21   43 1  
    48   22   44 1  
    49   23   45 1  
    50   24   46 1  
    51   28   47 1  
    52   30   48 1  
    53   30   49 1  
    54   31   50 1  
    55   31   51 1  
    56   31   52 1  
    57   32   53 1  
@<TRIPOS>SUBSTRUCTURE
     1 JLE         1

