### 
### Created by X-TOOL on Mon Aug  2 16:16:41 2021
### 

@<TRIPOS>MOLECULE
6qz7_ligand
   53    57     1     0     0
SMALL
GAST_HUCK


@<TRIPOS>ATOM
      1 C5        -13.5560   11.7700   -3.9250 C.ar      1 JLE         0.0454
      2 C6        -13.4970   12.8200   -3.0170 C.ar      1 JLE         0.1081
      3 C4        -14.6960   11.6620   -4.7080 C.ar      1 JLE         0.1248
      4 C2        -15.5560   13.5490   -3.6610 C.ar      1 JLE         0.0558
      5 C8        -11.5080   11.4730   -2.9220 C.2       1 JLE         0.0378
      6 N3        -14.4740   13.6950   -2.8990 N.ar      1 JLE        -0.2806
      7 C25       -15.8330    5.9660   -7.4200 C.ar      1 JLE        -0.0687
      8 C24       -14.5520    6.4730   -7.5840 C.ar      1 JLE        -0.0686
      9 C23       -14.3780    7.8320   -7.7740 C.ar      1 JLE        -0.0602
     10 C22       -15.4930    8.6670   -7.7880 C.ar      1 JLE        -0.0391
     11 C21       -15.2940   10.1450   -7.9760 C.3       1 JLE         0.0163
     12 C9        -12.3910   11.0200   -3.8680 C.2       1 JLE        -0.0090
     13 N1        -15.6740   12.5530   -4.5420 N.ar      1 JLE        -0.2677
     14 C11       -11.5450    7.3470   -5.7390 C.ar      1 JLE        -0.0502
     15 C12       -11.8650    7.4090   -4.3910 C.ar      1 JLE        -0.0835
     16 C13       -12.1330    8.6440   -3.8350 C.ar      1 JLE        -0.0814
     17 C14       -11.5000    8.5040   -6.5050 C.ar      1 JLE         0.0570
     18 C10       -12.0810    9.8020   -4.6000 C.ar      1 JLE        -0.0508
     19 C15       -11.7670    9.7440   -5.9370 C.ar      1 JLE        -0.0285
     20 C20       -15.8680   10.8520   -6.7690 C.3       1 JLE         0.1026
     21 C17       -11.2890    9.9850   -8.0740 C.2       1 JLE         0.0188
     22 C16       -11.6400   10.6890   -6.9230 C.2       1 JLE        -0.0669
     23 C26       -16.9400    6.8170   -7.4480 C.ar      1 JLE        -0.0686
     24 C27       -16.7850    8.1810   -7.6130 C.ar      1 JLE        -0.0602
     25 C28       -16.0650   12.2950   -7.2260 C.2       1 JLE         0.0625
     26 O30       -15.0990   13.0560   -7.3480 O.co2     1 JLE        -0.5664
     27 O29       -17.2070   12.6840   -7.4620 O.co2     1 JLE        -0.5664
     28 N19       -14.9130   10.6650   -5.6490 N.pl3     1 JLE        -0.2852
     29 S7        -12.0850   12.8660   -2.1130 S.3       1 JLE        -0.0006
     30 C31       -10.1930   10.8110   -2.6660 C.3       1 JLE        -0.0016
     31 C32        -9.2240   11.8530   -2.1030 C.3       1 JLE        -0.0509
     32 N18       -11.2130    8.6750   -7.7950 N.pl3     1 JLE        -0.2828
     33 H1        -16.3669   14.2616   -3.5629 H         1 JLE         0.0990
     34 H2        -15.9756    4.9021   -7.2691 H         1 JLE         0.0559
     35 H3        -13.6948    5.8098   -7.5634 H         1 JLE         0.0599
     36 H4        -13.3843    8.2430   -7.9106 H         1 JLE         0.0557
     37 H5        -15.8139   10.4787   -8.8861 H         1 JLE         0.0467
     38 H6        -14.2206   10.3688   -8.0640 H         1 JLE         0.0467
     39 H7        -11.3286    6.3889   -6.1975 H         1 JLE         0.0486
     40 H8        -11.9038    6.5090   -3.7881 H         1 JLE         0.0515
     41 H9        -12.3883    8.7110   -2.7836 H         1 JLE         0.0450
     42 H10       -16.8397   10.4225   -6.4839 H         1 JLE         0.0755
     43 H11       -11.1047   10.4305   -9.0505 H         1 JLE         0.0907
     44 H12       -11.7834   11.7642   -6.8269 H         1 JLE         0.0284
     45 H13       -17.9355    6.4020   -7.3388 H         1 JLE         0.0599
     46 H14       -17.6395    8.8479   -7.6063 H         1 JLE         0.0557
     47 H15       -14.3997    9.7757   -5.5680 H         1 JLE         0.1875
     48 H16        -9.7937   10.4036   -3.6065 H         1 JLE         0.0491
     49 H17       -10.3237    9.9956   -1.9394 H         1 JLE         0.0491
     50 H18        -8.2498   11.3806   -1.9089 H         1 JLE         0.0260
     51 H19        -9.6278   12.2597   -1.1641 H         1 JLE         0.0260
     52 H20        -9.0978   12.6677   -2.8313 H         1 JLE         0.0260
     53 H21       -10.9737    7.9289   -8.4636 H         1 JLE         0.2261
@<TRIPOS>BOND
     1    1    2 ar 
     2    3    1 ar 
     3    1   12 1  
     4    2    6 ar 
     5    2   29 1  
     6    3   13 ar 
     7   28    3 1  
     8    4    6 ar 
     9   13    4 ar 
    10   12    5 2  
    11    5   29 1  
    12    5   30 1  
    13    8    7 ar 
    14    7   23 ar 
    15    9    8 ar 
    16   10    9 ar 
    17   11   10 1  
    18   10   24 ar 
    19   20   11 1  
    20   12   18 1  
    21   15   14 ar 
    22   17   14 ar 
    23   16   15 ar 
    24   18   16 ar 
    25   19   17 ar 
    26   17   32 1  
    27   18   19 ar 
    28   19   22 1  
    29   20   25 1  
    30   20   28 1  
    31   22   21 2  
    32   21   32 1  
    33   23   24 ar 
    34   25   26 ar 
    35   25   27 ar 
    36   30   31 1  
    37    4   33 1  
    38    7   34 1  
    39    8   35 1  
    40    9   36 1  
    41   11   37 1  
    42   11   38 1  
    43   14   39 1  
    44   15   40 1  
    45   16   41 1  
    46   20   42 1  
    47   21   43 1  
    48   22   44 1  
    49   23   45 1  
    50   24   46 1  
    51   28   47 1  
    52   30   48 1  
    53   30   49 1  
    54   31   50 1  
    55   31   51 1  
    56   31   52 1  
    57   32   53 1  
@<TRIPOS>SUBSTRUCTURE
     1 JLE         1

