### 
### Created by X-TOOL on Mon Aug  2 16:16:41 2021
### 

@<TRIPOS>MOLECULE
6qz8_ligand
   52    55     1     0     0
SMALL
GAST_HUCK


@<TRIPOS>ATOM
      1 C6          5.8860    2.9130   -6.8560 C.2       1 JL8         0.0322
      2 C8          4.1930    1.3790   -6.4330 C.ar      1 JL8         0.0548
      3 C10         7.1090    3.7920   -6.5420 C.3       1 JL8        -0.0044
      4 C13         2.8210   -0.8600   -2.5480 C.3       1 JL8         0.0247
      5 C17         2.3850    0.3920   -1.8680 C.ar      1 JL8        -0.0384
      6 C21         0.6540    1.7370   -1.0080 C.ar      1 JL8        -0.0686
      7 C24         5.8800    2.0260   -4.5560 C.ar      1 JL8        -0.0451
      8 C28         6.3720    3.0520   -2.4250 C.ar      1 JL8         0.0636
      9 C2          2.0980    0.3030   -7.7600 C.ar      1 JL8         0.0599
     10 C9          3.9340    1.7200   -7.7450 C.ar      1 JL8         0.1102
     11 C18         1.0450    0.5630   -1.6160 C.ar      1 JL8        -0.0601
     12 C23         3.3410    1.3290   -1.4830 C.ar      1 JL8        -0.0601
     13 C27         7.1670    0.7880   -2.9180 C.ar      1 JL8        -0.0443
     14 C29         6.5860    0.8780   -4.1790 C.ar      1 JL8        -0.0770
     15 C30         5.0500    4.3910   -4.0180 C.3       1 JL8        -0.0344
     16 C25         5.7810    3.1100   -3.6630 C.ar      1 JL8        -0.0395
     17 CL          6.2670    4.3580   -1.2880 Cl        1 JL8        -0.0868
     18 C26         7.0560    1.8850   -2.0540 C.ar      1 JL8         0.0908
     19 O31         7.6170    1.8400   -0.8230 O.3       1 JL8        -0.3368
     20 C7          5.2950    2.0810   -5.9140 C.2       1 JL8        -0.0129
     21 C22         7.8020    4.1210   -7.8360 C.3       1 JL8        -0.0518
     22 S5          5.1260    2.8710   -8.3600 S.3       1 JL8        -0.0042
     23 N3          2.9070    1.1820   -8.3990 N.ar      1 JL8        -0.2775
     24 N1          2.3250   -0.0760   -6.4650 N.ar      1 JL8        -0.2561
     25 C4          3.3370    0.4770   -5.8120 C.ar      1 JL8         0.1792
     26 O11         3.5520    0.1840   -4.5210 O.3       1 JL8        -0.2725
     27 C12         2.6710   -0.8540   -4.0130 C.3       1 JL8         0.1489
     28 C14         3.0050   -2.2430   -4.6260 C.2       1 JL8         0.0718
     29 O16         2.1360   -3.1160   -4.6140 O.co2     1 JL8        -0.5659
     30 O15         4.1100   -2.4250   -5.1360 O.co2     1 JL8        -0.5659
     31 C19         1.5830    2.6620   -0.5830 C.ar      1 JL8        -0.0687
     32 C20         2.9210    2.4950   -0.8650 C.ar      1 JL8        -0.0686
     33 H1          7.7979    3.2472   -5.8797 H         1 JL8         0.0478
     34 H2          6.7830    4.7197   -6.0489 H         1 JL8         0.0478
     35 H3          2.2243   -1.6925   -2.1468 H         1 JL8         0.0474
     36 H4          3.8832   -1.0240   -2.3139 H         1 JL8         0.0474
     37 H5         -0.4016    1.9358   -0.8618 H         1 JL8         0.0599
     38 H6          1.2475   -0.1114   -8.2892 H         1 JL8         0.0996
     39 H7          0.3214   -0.1978   -1.8856 H         1 JL8         0.0557
     40 H8          4.3945    1.1488   -1.6638 H         1 JL8         0.0557
     41 H9          7.6927   -0.1091   -2.6116 H         1 JL8         0.0477
     42 H10         6.6809    0.0524   -4.8750 H         1 JL8         0.0524
     43 H11         4.6270    4.3034   -5.0296 H         1 JL8         0.0386
     44 H12         5.7540    5.2356   -3.9868 H         1 JL8         0.0386
     45 H13         4.2389    4.5628   -3.2951 H         1 JL8         0.0386
     46 H14         8.5541    1.7092   -0.9079 H         1 JL8         0.2472
     47 H15         8.6808    4.7502   -7.6316 H         1 JL8         0.0258
     48 H16         7.1086    4.6630   -8.4959 H         1 JL8         0.0258
     49 H17         8.1234    3.1905   -8.3267 H         1 JL8         0.0258
     50 H18         1.6311   -0.6042   -4.2703 H         1 JL8         0.0857
     51 H19         1.2575    3.5299   -0.0210 H         1 JL8         0.0559
     52 H20         3.6366    3.2670   -0.6063 H         1 JL8         0.0599
@<TRIPOS>BOND
     1    1    3 1  
     2   20    1 2  
     3    1   22 1  
     4    2   10 ar 
     5    2   20 1  
     6   25    2 ar 
     7    3   21 1  
     8    4    5 1  
     9   27    4 1  
    10    5   11 ar 
    11    5   12 ar 
    12   11    6 ar 
    13    6   31 ar 
    14    7   14 ar 
    15    7   16 ar 
    16   20    7 1  
    17   16    8 ar 
    18    8   17 1  
    19    8   18 ar 
    20    9   23 ar 
    21   24    9 ar 
    22   10   22 1  
    23   10   23 ar 
    24   12   32 ar 
    25   14   13 ar 
    26   13   18 ar 
    27   16   15 1  
    28   18   19 1  
    29   25   24 ar 
    30   26   25 1  
    31   26   27 1  
    32   27   28 1  
    33   28   29 ar 
    34   28   30 ar 
    35   31   32 ar 
    36    3   33 1  
    37    3   34 1  
    38    4   35 1  
    39    4   36 1  
    40    6   37 1  
    41    9   38 1  
    42   11   39 1  
    43   12   40 1  
    44   13   41 1  
    45   14   42 1  
    46   15   43 1  
    47   15   44 1  
    48   15   45 1  
    49   19   46 1  
    50   21   47 1  
    51   21   48 1  
    52   21   49 1  
    53   27   50 1  
    54   31   51 1  
    55   32   52 1  
@<TRIPOS>SUBSTRUCTURE
     1 JL8         1

