### 
### Created by X-TOOL on Mon Aug  2 16:16:41 2021
### 

@<TRIPOS>MOLECULE
6qzb_ligand
   52    55     1     0     0
SMALL
GAST_HUCK


@<TRIPOS>ATOM
      1 N10        -5.6750    0.5110    4.5110 N.pl3     1 JLK        -0.2852
      2 C11        -4.9420   -0.6380    3.9280 C.3       1 JLK         0.1026
      3 C13        -5.2300   -1.9930    4.6540 C.2       1 JLK         0.0625
      4 C18        -8.0200    2.5720    4.6510 C.ar      1 JLK        -0.0366
      5 C19        -9.1790    2.4850    2.1020 C.ar      1 JLK        -0.0749
      6 C20        -9.3260    1.3840    2.9450 C.ar      1 JLK        -0.0753
      7 C21        -8.7590    1.4570    4.2090 C.ar      1 JLK        -0.0704
      8 C22        -8.4460    3.6140    2.5080 C.ar      1 JLK        -0.0666
      9 C23        -7.8550    3.6530    3.7770 C.ar      1 JLK        -0.0468
     10 C24        -7.0770    4.8460    4.2010 C.3       1 JLK        -0.0331
     11 C25        -4.7790    0.5050    1.7850 C.ar      1 JLK        -0.0391
     12 C27        -2.9080    1.7960    0.9760 C.ar      1 JLK        -0.0686
     13 C28        -3.7490    2.8370    0.5740 C.ar      1 JLK        -0.0687
     14 C29        -5.1120    2.6970    0.7790 C.ar      1 JLK        -0.0686
     15 C30        -5.6270    1.5350    1.3970 C.ar      1 JLK        -0.0602
     16 C9         -7.4300    2.5790    6.0070 C.2       1 JLK        -0.0078
     17 C5         -6.3600    1.7420    6.4400 C.ar      1 JLK         0.0447
     18 C8         -7.9010    3.3490    7.0470 C.2       1 JLK         0.0361
     19 C16        -9.0560    4.3240    6.9440 C.3       1 JLK        -0.0025
     20 C17        -9.9290    4.4000    8.1540 C.3       1 JLK        -0.0512
     21 S7         -7.0540    3.1310    8.5080 S.3       1 JLK        -0.0022
     22 C6         -6.0740    1.9640    7.7820 C.ar      1 JLK         0.1075
     23 N3         -5.0400    1.3470    8.4190 N.ar      1 JLK        -0.2809
     24 C2         -4.2860    0.4760    7.7510 C.ar      1 JLK         0.0556
     25 N1         -4.5160    0.1740    6.4770 N.ar      1 JLK        -0.2679
     26 C4         -5.5070    0.8170    5.7930 C.ar      1 JLK         0.1246
     27 O15        -6.3320   -2.1250    5.2080 O.co2     1 JLK        -0.5664
     28 O14        -4.4060   -2.9330    4.5270 O.co2     1 JLK        -0.5664
     29 C12        -5.2940   -0.7670    2.4630 C.3       1 JLK         0.0163
     30 C26        -3.4230    0.6500    1.5730 C.ar      1 JLK        -0.0602
     31 H1         -6.3117    1.0696    3.9249 H         1 JLK         0.1875
     32 H2         -3.8652   -0.4308    4.0147 H         1 JLK         0.0755
     33 H3         -9.6365    2.4702    1.1194 H         1 JLK         0.0546
     34 H4         -9.8654    0.5004    2.6233 H         1 JLK         0.0544
     35 H5         -8.8902    0.6203    4.8856 H         1 JLK         0.0541
     36 H6         -8.3379    4.4577    1.8360 H         1 JLK         0.0537
     37 H7         -6.6941    4.6907    5.2204 H         1 JLK         0.0384
     38 H8         -7.7276    5.7328    4.1849 H         1 JLK         0.0384
     39 H9         -6.2334    4.9976    3.5116 H         1 JLK         0.0384
     40 H10        -1.8387    1.8828    0.8204 H         1 JLK         0.0599
     41 H11        -3.3452    3.7314    0.1134 H         1 JLK         0.0559
     42 H12        -5.7877    3.4837    0.4634 H         1 JLK         0.0599
     43 H13        -6.6935    1.4465    1.5699 H         1 JLK         0.0557
     44 H14        -9.6814    4.0230    6.0906 H         1 JLK         0.0486
     45 H15        -8.6412    5.3259    6.7593 H         1 JLK         0.0486
     46 H16       -10.7328    5.1307    7.9808 H         1 JLK         0.0259
     47 H17        -9.3284    4.7141    9.0204 H         1 JLK         0.0259
     48 H18       -10.3686    3.4112    8.3517 H         1 JLK         0.0259
     49 H19        -3.4583   -0.0020    8.2624 H         1 JLK         0.0988
     50 H20        -6.3838   -0.8505    2.3388 H         1 JLK         0.0467
     51 H21        -4.8067   -1.6533    2.0306 H         1 JLK         0.0467
     52 H22        -2.7482   -0.1421    1.8767 H         1 JLK         0.0557
@<TRIPOS>BOND
     1    1    2 1  
     2   26    1 1  
     3    2    3 1  
     4    2   29 1  
     5    3   27 ar 
     6    3   28 ar 
     7    4    7 ar 
     8    4    9 ar 
     9   16    4 1  
    10    6    5 ar 
    11    8    5 ar 
    12    7    6 ar 
    13    9    8 ar 
    14    9   10 1  
    15   11   15 ar 
    16   29   11 1  
    17   11   30 ar 
    18   12   13 ar 
    19   30   12 ar 
    20   14   13 ar 
    21   15   14 ar 
    22   17   16 1  
    23   16   18 2  
    24   17   22 ar 
    25   17   26 ar 
    26   18   19 1  
    27   18   21 1  
    28   19   20 1  
    29   21   22 1  
    30   22   23 ar 
    31   23   24 ar 
    32   24   25 ar 
    33   25   26 ar 
    34    1   31 1  
    35    2   32 1  
    36    5   33 1  
    37    6   34 1  
    38    7   35 1  
    39    8   36 1  
    40   10   37 1  
    41   10   38 1  
    42   10   39 1  
    43   12   40 1  
    44   13   41 1  
    45   14   42 1  
    46   15   43 1  
    47   19   44 1  
    48   19   45 1  
    49   20   46 1  
    50   20   47 1  
    51   20   48 1  
    52   24   49 1  
    53   29   50 1  
    54   29   51 1  
    55   30   52 1  
@<TRIPOS>SUBSTRUCTURE
     1 JLK         1

