### 
### Created by X-TOOL on Mon Aug  2 16:11:31 2021
### 

@<TRIPOS>MOLECULE
6qzh_ligand
   62    64     1     0     0
SMALL
GAST_HUCK


@<TRIPOS>ATOM
      1 N1        -14.0650  -14.8450  -21.2780 N.am      1 JLW        -0.2817
      2 N3        -19.4710  -17.3550  -17.1930 N.2       1 JLW        -0.1711
      3 C4        -15.4200  -15.0070  -19.2350 C.ar      1 JLW         0.0721
      4 C5        -16.8360  -14.0430  -17.5480 C.ar      1 JLW        -0.0742
      5 C6        -15.9430  -13.8670  -18.6020 C.ar      1 JLW        -0.0441
      6 C7        -15.8240  -16.2800  -18.7860 C.ar      1 JLW         0.1293
      7 C8        -16.7340  -16.4370  -17.7280 C.ar      1 JLW         0.0987
      8 C10       -15.5690  -12.4740  -19.0390 C.3       1 JLW        -0.0348
      9 C13       -18.1780  -21.7580  -16.0260 C.3       1 JLW         0.1070
     10 C15       -17.9480  -22.8030  -17.0580 C.2       1 JLW         0.1127
     11 C17       -16.0420  -21.8040  -14.6540 C.3       1 JLW        -0.0561
     12 C20       -17.9380  -24.4390  -18.5630 C.2       1 JLW        -0.0829
     13 C21       -16.6870  -23.9640  -18.4500 C.2       1 JLW         0.0834
     14 C22       -15.3890  -24.2990  -19.0900 C.3       1 JLW        -0.0062
     15 C1        -14.0890  -14.9080  -19.9390 C.2       1 JLW         0.1940
     16 C11       -18.4270  -18.1380  -17.0900 C.2       1 JLW         0.2155
     17 C12       -18.6780  -19.5000  -16.6960 C.2       1 JLW         0.2042
     18 C14       -17.5420  -22.0990  -14.6450 C.3       1 JLW        -0.0029
     19 C16       -17.7520  -23.5800  -14.3290 C.3       1 JLW        -0.0561
     20 C18       -18.2000  -21.2660  -13.5440 C.3       1 JLW        -0.0561
     21 C19       -18.7490  -23.6930  -17.6700 C.2       1 JLW        -0.0803
     22 C2        -15.2740  -14.8760  -22.0940 C.3       1 JLW         0.0213
     23 C3        -12.8110  -14.7290  -22.0150 C.3       1 JLW         0.0213
     24 C9        -17.2290  -15.2940  -17.1110 C.ar      1 JLW        -0.0467
     25 N2        -17.1440  -17.7320  -17.3310 N.pl3     1 JLW        -0.2423
     26 N4        -19.9480  -19.7550  -16.4970 N.2       1 JLW        -0.1740
     27 N5        -17.7460  -20.4660  -16.5300 N.pl3     1 JLW        -0.2684
     28 O1        -13.0760  -14.8880  -19.2650 O.2       1 JLW        -0.3947
     29 O2        -15.3260  -17.3980  -19.3740 O.3       1 JLW        -0.3324
     30 O3        -21.3780  -17.8540  -15.5990 O.2       1 JLW        -0.1502
     31 O4        -21.6130  -18.4880  -17.9360 O.2       1 JLW        -0.1502
     32 O5        -16.6640  -22.9500  -17.5260 O.3       1 JLW        -0.2631
     33 S1        -20.7640  -18.3280  -16.7990 S.o2      1 JLW         0.1016
     34 H1        -17.2376  -13.1667  -17.0521 H         1 JLW         0.0450
     35 H2        -14.8592  -12.5309  -19.8774 H         1 JLW         0.0383
     36 H3        -15.1019  -11.9391  -18.1989 H         1 JLW         0.0383
     37 H4        -16.4728  -11.9352  -19.3597 H         1 JLW         0.0383
     38 H5        -19.2644  -21.6984  -15.8641 H         1 JLW         0.0744
     39 H6        -15.6138  -22.0514  -13.6714 H         1 JLW         0.0237
     40 H7        -15.8794  -20.7371  -14.8667 H         1 JLW         0.0237
     41 H8        -15.5535  -22.4113  -15.4302 H         1 JLW         0.0237
     42 H9        -18.2676  -25.2450  -19.2170 H         1 JLW         0.0186
     43 H10       -14.6028  -23.6415  -18.6906 H         1 JLW         0.0401
     44 H11       -15.4688  -24.1562  -20.1778 H         1 JLW         0.0401
     45 H12       -15.1342  -25.3473  -18.8755 H         1 JLW         0.0401
     46 H13       -18.8289  -23.8038  -14.3199 H         1 JLW         0.0237
     47 H14       -17.3216  -23.8092  -13.3430 H         1 JLW         0.0237
     48 H15       -17.2567  -24.1926  -15.0967 H         1 JLW         0.0237
     49 H16       -18.0568  -20.1966  -13.7582 H         1 JLW         0.0237
     50 H17       -17.7405  -21.5105  -12.5750 H         1 JLW         0.0237
     51 H18       -19.2760  -21.4916  -13.5069 H         1 JLW         0.0237
     52 H19       -19.8190  -23.8175  -17.5101 H         1 JLW         0.0187
     53 H20       -15.0003  -14.8115  -23.1575 H         1 JLW         0.0485
     54 H21       -15.9174  -14.0242  -21.8287 H         1 JLW         0.0485
     55 H22       -15.8158  -15.8157  -21.9112 H         1 JLW         0.0485
     56 H23       -11.9695  -14.7148  -21.3068 H         1 JLW         0.0485
     57 H24       -12.8140  -13.7971  -22.5995 H         1 JLW         0.0485
     58 H25       -12.7041  -15.5876  -22.6943 H         1 JLW         0.0485
     59 H26       -17.9251  -15.3840  -16.2849 H         1 JLW         0.0528
     60 H27       -16.4033  -18.4377  -17.2120 H         1 JLW         0.2177
     61 H28       -16.7564  -20.2902  -16.7550 H         1 JLW         0.1932
     62 H29       -16.0402  -17.9083  -19.7373 H         1 JLW         0.2475
@<TRIPOS>BOND
     1   15    1 am 
     2    1   22 1  
     3    1   23 1  
     4   16    2 2  
     5    2   33 1  
     6    3    5 ar 
     7    6    3 ar 
     8    3   15 1  
     9    4    5 ar 
    10   24    4 ar 
    11    5    8 1  
    12    7    6 ar 
    13    6   29 1  
    14    7   24 ar 
    15   25    7 1  
    16    9   10 1  
    17    9   18 1  
    18   27    9 1  
    19   10   21 2  
    20   10   32 1  
    21   18   11 1  
    22   13   12 2  
    23   21   12 1  
    24   13   14 1  
    25   32   13 1  
    26   15   28 2  
    27   17   16 1  
    28   16   25 1  
    29   17   26 2  
    30   17   27 1  
    31   18   19 1  
    32   18   20 1  
    33   26   33 1  
    34   33   30 2  
    35   33   31 2  
    36    4   34 1  
    37    8   35 1  
    38    8   36 1  
    39    8   37 1  
    40    9   38 1  
    41   11   39 1  
    42   11   40 1  
    43   11   41 1  
    44   12   42 1  
    45   14   43 1  
    46   14   44 1  
    47   14   45 1  
    48   19   46 1  
    49   19   47 1  
    50   19   48 1  
    51   20   49 1  
    52   20   50 1  
    53   20   51 1  
    54   21   52 1  
    55   22   53 1  
    56   22   54 1  
    57   22   55 1  
    58   23   56 1  
    59   23   57 1  
    60   23   58 1  
    61   24   59 1  
    62   25   60 1  
    63   27   61 1  
    64   29   62 1  
@<TRIPOS>SUBSTRUCTURE
     1 JLW         1

