### 
### Created by X-TOOL on Mon Aug  2 16:16:42 2021
### 

@<TRIPOS>MOLECULE
6r0k_ligand
   33    34     1     0     0
SMALL
GAST_HUCK


@<TRIPOS>ATOM
      1 O1         -7.0800   25.2080   -5.7270 O.2       1 JNN        -0.3857
      2 C1         -7.0290   26.1240   -4.8960 C.2       1 JNN         0.2318
      3 N1         -7.9240   26.2290   -3.9270 N.am      1 JNN        -0.1633
      4 O2         -8.8080   25.1750   -3.7430 O.3       1 JNN        -0.2719
      5 C2         -5.8820   27.0270   -4.7940 C.2       1 JNN         0.1145
      6 C3         -5.8010   28.2370   -4.0950 C.2       1 JNN        -0.0162
      7 C4         -4.5300   28.6570   -4.2330 C.2       1 JNN         0.1440
      8 C5         -3.7890   29.8670   -3.7840 C.3       1 JNN         0.0416
      9 C6         -2.3030   29.6380   -3.5070 C.3       1 JNN         0.0446
     10 N2         -1.5280   29.3970   -4.7230 N.am      1 JNN        -0.2838
     11 C7         -1.1600   30.3640   -5.5750 C.2       1 JNN         0.2051
     12 O3         -1.4280   31.5560   -5.3940 O.2       1 JNN        -0.3847
     13 C8         -0.3560   29.9450   -6.7720 C.ar      1 JNN         0.0503
     14 C9         -0.2960   30.7240   -7.9220 C.ar      1 JNN        -0.0415
     15 C10         0.4670   30.3280   -9.0110 C.ar      1 JNN        -0.0419
     16 C11         1.1810   29.1420   -8.9420 C.ar      1 JNN         0.0589
     17 CL1         2.1470   28.6300  -10.2870 Cl        1 JNN        -0.0659
     18 C12         1.1230   28.3720   -7.7930 C.ar      1 JNN         0.0598
     19 CL2         2.0020   26.8920   -7.6710 Cl        1 JNN        -0.0689
     20 C13         0.3630   28.7680   -6.7170 C.ar      1 JNN        -0.0276
     21 O4         -3.8560   27.7570   -4.9870 O.3       1 JNN        -0.1604
     22 N3         -4.7280   26.7110   -5.3250 N.2       1 JNN        -0.1330
     23 H1         -7.9622   27.0419   -3.3458 H         1 JNN         0.2213
     24 H2         -9.3927   25.3758   -3.0217 H         1 JNN         0.2491
     25 H3         -6.6019   28.7359   -3.5513 H         1 JNN         0.0311
     26 H4         -4.2579   30.2326   -2.8586 H         1 JNN         0.0504
     27 H5         -3.8775   30.6338   -4.5677 H         1 JNN         0.0504
     28 H6         -2.1997   28.7647   -2.8462 H         1 JNN         0.0546
     29 H7         -1.8985   30.5286   -3.0038 H         1 JNN         0.0546
     30 H8         -1.2570   28.4571   -4.9309 H         1 JNN         0.1847
     31 H9         -0.8527   31.6530   -7.9684 H         1 JNN         0.0670
     32 H10         0.5043   30.9391   -9.9055 H         1 JNN         0.0634
     33 H11         0.3287   28.1545   -5.8240 H         1 JNN         0.0675
@<TRIPOS>BOND
     1    1    2 2  
     2    2    3 am 
     3    2    5 1  
     4    3    4 1  
     5    5    6 1  
     6    5   22 2  
     7    6    7 2  
     8    7    8 1  
     9    7   21 1  
    10    8    9 1  
    11    9   10 1  
    12   10   11 am 
    13   11   12 2  
    14   11   13 1  
    15   13   14 ar 
    16   13   20 ar 
    17   14   15 ar 
    18   15   16 ar 
    19   16   17 1  
    20   16   18 ar 
    21   18   19 1  
    22   18   20 ar 
    23   21   22 1  
    24    3   23 1  
    25    4   24 1  
    26    6   25 1  
    27    8   26 1  
    28    8   27 1  
    29    9   28 1  
    30    9   29 1  
    31   10   30 1  
    32   14   31 1  
    33   15   32 1  
    34   20   33 1  
@<TRIPOS>SUBSTRUCTURE
     1 JNN         1

