### 
### Created by X-TOOL on Sat Aug  7 21:31:18 2021
### 

@<TRIPOS>MOLECULE
6r0s_ligand
   28    30     1     0     0
SMALL
GAST_HUCK


@<TRIPOS>ATOM
      1 O3         24.7420  -12.0250    2.4870 O.2       1 JOH        -0.3672
      2 C5         25.2750  -13.1050    2.5780 C.2       1 JOH         0.2391
      3 N2         25.3720  -14.0330    1.5330 N.am      1 JOH        -0.1616
      4 C1         24.8430  -13.7880    0.1990 C.3       1 JOH         0.1769
      5 C4         25.5700  -14.3710   -1.0280 C.3       1 JOH         0.0873
      6 C3         24.4360  -14.6140   -1.9910 C.2       1 JOH         0.2094
      7 O1         24.4690  -14.7350   -3.2060 O.2       1 JOH        -0.3860
      8 N1         23.2760  -14.6750   -1.2620 N.am      1 JOH        -0.1972
      9 C2         23.4570  -14.3700    0.0520 C.2       1 JOH         0.2369
     10 O2         22.6400  -14.5150    0.9310 O.2       1 JOH        -0.3831
     11 C6         26.0420  -13.6750    3.7110 C.ar      1 JOH         0.0623
     12 C7         26.5100  -14.9260    3.3250 C.ar      1 JOH         0.0973
     13 C8         25.9670  -15.2220    1.9710 C.2       1 JOH         0.2341
     14 O4         25.9350  -16.2800    1.3890 O.2       1 JOH        -0.3748
     15 C9         26.3590  -13.1060    4.9290 C.ar      1 JOH        -0.0499
     16 C10        27.1540  -13.8550    5.7960 C.ar      1 JOH        -0.0632
     17 C11        27.6200  -15.1160    5.4470 C.ar      1 JOH        -0.0264
     18 C12        27.2920  -15.6770    4.2030 C.ar      1 JOH         0.1570
     19 N3         27.8320  -16.9950    3.8540 N.pl3     1 JOH         0.1276
     20 O5         27.0900  -17.8140    3.3290 O.2       1 JOH        -0.1109
     21 O6         29.0250  -17.1890    4.0620 O.2       1 JOH        -0.1109
     22 H1         24.8015  -12.6953    0.0800 H         1 JOH         0.0882
     23 H2         26.0861  -15.3092   -0.7762 H         1 JOH         0.0560
     24 H3         26.2946  -13.6530   -1.4396 H         1 JOH         0.0560
     25 H4         22.3893  -14.9183   -1.6551 H         1 JOH         0.2257
     26 H5         26.0045  -12.1180    5.1998 H         1 JOH         0.0575
     27 H6         27.4142  -13.4436    6.7646 H         1 JOH         0.0629
     28 H7         28.2415  -15.6709    6.1404 H         1 JOH         0.0567
@<TRIPOS>BOND
     1    2    1 2  
     2    2    3 1  
     3    2   11 1  
     4    3    4 1  
     5    3   13 am 
     6    4    5 1  
     7    4    9 1  
     8    5    6 1  
     9    6    7 2  
    10    6    8 1  
    11    9    8 am 
    12    9   10 2  
    13   11   12 ar 
    14   11   15 ar 
    15   12   13 1  
    16   12   18 ar 
    17   13   14 2  
    18   15   16 ar 
    19   16   17 ar 
    20   18   17 ar 
    21   18   19 1  
    22   19   20 2  
    23   19   21 2  
    24    4   22 1  
    25    5   23 1  
    26    5   24 1  
    27    8   25 1  
    28   15   26 1  
    29   16   27 1  
    30   17   28 1  
@<TRIPOS>SUBSTRUCTURE
     1 JOH         1

