### 
### Created by X-TOOL on Sat Aug  7 21:31:18 2021
### 

@<TRIPOS>MOLECULE
6r0u_ligand
   28    30     1     0     0
SMALL
GAST_HUCK


@<TRIPOS>ATOM
      1 C4         27.2370  -15.3360    5.6220 C.ar      1 JO5        -0.0341
      2 C5         26.8530  -14.0340    5.9140 C.ar      1 JO5        -0.0634
      3 C6         26.3040  -13.2140    4.9290 C.ar      1 JO5        -0.0499
      4 C11        24.6200  -14.4730   -2.1400 C.2       1 JO5         0.2094
      5 C7         26.1300  -13.7630    3.6710 C.ar      1 JO5         0.0620
      6 C8         25.6030  -13.1220    2.4510 C.2       1 JO5         0.2391
      7 C9         25.1350  -13.7860    0.1000 C.3       1 JO5         0.1769
      8 C10        25.8040  -14.1490   -1.2470 C.3       1 JO5         0.0873
      9 C12        23.8060  -14.4900   -0.0130 C.2       1 JO5         0.2369
     10 N1         27.4440  -17.1610    4.0590 N.pl3     1 JO5        -0.3317
     11 N2         25.7110  -14.0590    1.4160 N.am      1 JO5        -0.1616
     12 C3         27.0730  -15.8760    4.3370 C.ar      1 JO5         0.0616
     13 N3         23.5280  -14.6340   -1.3310 N.am      1 JO5        -0.1972
     14 O1         26.1680  -16.3540    1.3210 O.2       1 JO5        -0.3748
     15 C1         26.1760  -15.2970    1.9140 C.2       1 JO5         0.2339
     16 C2         26.5110  -15.0610    3.3420 C.ar      1 JO5         0.0897
     17 O2         25.1350  -12.0160    2.3240 O.2       1 JO5        -0.3672
     18 O3         24.5460  -14.6200   -3.3580 O.2       1 JO5        -0.3860
     19 O4         23.0750  -14.7780    0.8890 O.2       1 JO5        -0.3831
     20 H1         27.6727  -15.9484    6.4031 H         1 JO5         0.0564
     21 H2         26.9816  -13.6505    6.9197 H         1 JO5         0.0629
     22 H3         26.0249  -12.1881    5.1402 H         1 JO5         0.0575
     23 H4         24.9765  -12.6977    0.0807 H         1 JO5         0.0882
     24 H5         26.3784  -13.2994   -1.6447 H         1 JO5         0.0560
     25 H6         26.4665  -15.0202   -1.1372 H         1 JO5         0.0560
     26 H7         27.8554  -17.7495    4.7975 H         1 JO5         0.1746
     27 H8         27.3123  -17.5414    3.1109 H         1 JO5         0.1746
     28 H9         22.6131  -14.8382   -1.6792 H         1 JO5         0.2257
@<TRIPOS>BOND
     1    2    1 ar 
     2    1   12 ar 
     3    3    2 ar 
     4    5    3 ar 
     5    8    4 1  
     6    4   13 1  
     7    4   18 2  
     8    6    5 1  
     9    5   16 ar 
    10   11    6 1  
    11    6   17 2  
    12    7    8 1  
    13    7    9 1  
    14   11    7 1  
    15    9   13 am 
    16    9   19 2  
    17   12   10 1  
    18   11   15 am 
    19   12   16 ar 
    20   15   14 2  
    21   15   16 1  
    22    1   20 1  
    23    2   21 1  
    24    3   22 1  
    25    7   23 1  
    26    8   24 1  
    27    8   25 1  
    28   10   26 1  
    29   10   27 1  
    30   13   28 1  
@<TRIPOS>SUBSTRUCTURE
     1 JO5         1

