### 
### Created by X-TOOL on Mon Aug  2 16:16:42 2021
### 

@<TRIPOS>MOLECULE
6r0v_ligand
   30    31     1     0     0
SMALL
GAST_HUCK


@<TRIPOS>ATOM
      1 C4         22.9610   17.4820   -6.5350 C.3       1 JO2         0.0832
      2 C5         27.4640   21.3550   -6.5140 C.ar      1 JO2         0.0988
      3 C6         26.8440   20.3820   -7.3050 C.ar      1 JO2         0.0765
      4 C11        26.9110   20.4810   -8.6960 C.ar      1 JO2        -0.0007
      5 C7         26.2350   19.1610   -6.6780 C.2       1 JO2         0.2112
      6 C8         28.0740   22.4530   -7.1150 C.ar      1 JO2        -0.0296
      7 C9         28.1230   22.5890   -8.4850 C.ar      1 JO2        -0.0165
      8 C10        27.5300   21.5940   -9.2680 C.ar      1 JO2         0.1453
      9 C12        27.4370   21.2850   -5.0180 C.2       1 JO2         0.3822
     10 N1         23.5730   15.8440   -8.0910 N.am      1 JO2        -0.1975
     11 N2         24.9910   18.8090   -7.0480 N.am      1 JO2        -0.2619
     12 C3         22.5190   16.2840   -7.3230 C.2       1 JO2         0.2091
     13 N3         27.5590   21.7240  -10.7210 N.2       1 JO2         0.0455
     14 C1         24.4850   17.4970   -6.7160 C.3       1 JO2         0.1527
     15 C2         24.7370   16.5180   -7.8420 C.2       1 JO2         0.2324
     16 O1         21.4390   15.7320   -7.2860 O.2       1 JO2        -0.3860
     17 O2         25.7770   16.3740   -8.4700 O.2       1 JO2        -0.3835
     18 O3         26.8610   18.5020   -5.8420 O.2       1 JO2        -0.3833
     19 O4         28.3330   22.5360  -11.2160 O.2       1 JO2        -0.1486
     20 O5         26.8270   21.0160  -11.3850 O.2       1 JO2        -0.1486
     21 O6         26.3240   21.1150   -4.4870 O.co2     1 JO2        -0.2522
     22 O7         28.5200   21.3860   -4.4100 O.co2     1 JO2        -0.2522
     23 H1         22.6935   17.3734   -5.4736 H         1 JO2         0.0556
     24 H2         22.5098   18.4022   -6.9346 H         1 JO2         0.0556
     25 H3         26.4883   19.7045   -9.3232 H         1 JO2         0.0750
     26 H4         28.5206   23.2183   -6.4905 H         1 JO2         0.0677
     27 H5         28.6077   23.4435   -8.9431 H         1 JO2         0.0729
     28 H6         23.4958   15.1069   -8.7624 H         1 JO2         0.2257
     29 H7         24.4170   19.4543   -7.5521 H         1 JO2         0.1879
     30 H8         24.9764   17.1530   -5.7940 H         1 JO2         0.0831
@<TRIPOS>BOND
     1    1   12 1  
     2   14    1 1  
     3    3    2 ar 
     4    2    6 ar 
     5    2    9 1  
     6    3    4 ar 
     7    5    3 1  
     8    4    8 ar 
     9   11    5 am 
    10    5   18 2  
    11    6    7 ar 
    12    8    7 ar 
    13    8   13 1  
    14    9   21 ar 
    15    9   22 ar 
    16   12   10 am 
    17   10   15 am 
    18   11   14 1  
    19   12   16 2  
    20   13   19 2  
    21   13   20 2  
    22   14   15 1  
    23   15   17 2  
    24    1   23 1  
    25    1   24 1  
    26    4   25 1  
    27    6   26 1  
    28    7   27 1  
    29   10   28 1  
    30   11   29 1  
    31   14   30 1  
@<TRIPOS>SUBSTRUCTURE
     1 JO2         1

