### 
### Created by X-TOOL on Mon Aug  2 16:16:42 2021
### 

@<TRIPOS>MOLECULE
6r11_ligand
   28    30     1     0     0
SMALL
GAST_HUCK


@<TRIPOS>ATOM
      1 C4         25.0440   15.9200   -8.0120 C.2       1 JOB         0.2369
      2 C5         25.8110   18.7140   -8.8980 C.2       1 JOB         0.2395
      3 C6         26.9110   19.7020   -8.9980 C.ar      1 JOB         0.0622
      4 C11        29.0480   21.3890   -8.6380 C.ar      1 JOB        -0.0346
      5 C7         27.5620   19.7510   -7.7800 C.ar      1 JOB         0.0596
      6 C8         26.9020   18.7960   -6.8590 C.2       1 JOB         0.2327
      7 C9         27.2970   20.4800  -10.0610 C.ar      1 JOB        -0.0192
      8 C10        28.3900   21.3430   -9.8740 C.ar      1 JOB         0.0460
      9 C12        28.6400   20.5930   -7.5790 C.ar      1 JOB        -0.0488
     10 N1         23.7500   15.5340   -8.2290 N.am      1 JOB        -0.1972
     11 N2         25.8920   18.1860   -7.6080 N.am      1 JOB        -0.1611
     12 C3         25.0340   17.1320   -7.1060 C.3       1 JOB         0.1770
     13 N3         28.8160   22.1470  -10.9180 N.pl3     1 JOB        -0.3333
     14 C1         22.8300   16.3510   -7.6170 C.2       1 JOB         0.2094
     15 C2         23.5540   17.5380   -7.0470 C.3       1 JOB         0.0873
     16 O1         26.0330   15.3790   -8.4700 O.2       1 JOB        -0.3831
     17 O2         21.6340   16.1190   -7.5640 O.2       1 JOB        -0.3860
     18 O3         24.9860   18.3880   -9.7200 O.2       1 JOB        -0.3669
     19 O4         27.1380   18.5500   -5.7000 O.2       1 JOB        -0.3732
     20 H1         29.8905   22.0585   -8.5076 H         1 JOB         0.0561
     21 H2         26.7771   20.4304  -11.0109 H         1 JOB         0.0584
     22 H3         29.1502   20.6296   -6.6232 H         1 JOB         0.0648
     23 H4         23.4985   14.7370   -8.7781 H         1 JOB         0.2257
     24 H5         25.3833   16.8535   -6.1008 H         1 JOB         0.0882
     25 H6         29.6167   22.7813  -10.7859 H         1 JOB         0.1738
     26 H7         28.3321   22.1107  -11.8265 H         1 JOB         0.1738
     27 H8         23.3703   18.4368   -7.6540 H         1 JOB         0.0560
     28 H9         23.2409   17.7260   -6.0094 H         1 JOB         0.0560
@<TRIPOS>BOND
     1    1   10 am 
     2   12    1 1  
     3    1   16 2  
     4    2    3 1  
     5   11    2 am 
     6    2   18 2  
     7    5    3 ar 
     8    3    7 ar 
     9    4    8 ar 
    10    9    4 ar 
    11    6    5 1  
    12    5    9 ar 
    13   11    6 am 
    14    6   19 2  
    15    7    8 ar 
    16    8   13 1  
    17   10   14 am 
    18   11   12 1  
    19   12   15 1  
    20   14   15 1  
    21   14   17 2  
    22    4   20 1  
    23    7   21 1  
    24    9   22 1  
    25   10   23 1  
    26   12   24 1  
    27   13   25 1  
    28   13   26 1  
    29   15   27 1  
    30   15   28 1  
@<TRIPOS>SUBSTRUCTURE
     1 JOB         1

