### 
### Created by X-TOOL on Sat Aug  7 21:31:18 2021
### 

@<TRIPOS>MOLECULE
6r12_ligand
   29    30     1     0     0
SMALL
GAST_HUCK


@<TRIPOS>ATOM
      1 C4         22.4150   13.9930   26.1650 C.2       1 JOT         0.2325
      2 C5         24.4480   15.5090   28.2260 C.2       1 JOT         0.1899
      3 C6         24.3100   15.9920   29.6530 C.3       1 JOT         0.0705
      4 C11        21.1590   18.0880   29.9730 C.ar      1 JOT        -0.0681
      5 C7         23.3800   17.1770   29.7510 C.ar      1 JOT        -0.0243
      6 C8         23.8720   18.4730   29.7110 C.ar      1 JOT        -0.0580
      7 C9         23.0160   19.5590   29.8010 C.ar      1 JOT        -0.0681
      8 C10        21.6630   19.3640   29.9320 C.ar      1 JOT        -0.0684
      9 C12        22.0120   16.9980   29.8830 C.ar      1 JOT        -0.0580
     10 N1         21.9430   12.8230   25.6400 N.am      1 JOT        -0.1975
     11 N2         23.9890   14.2780   27.9950 N.am      1 JOT        -0.2614
     12 C3         23.8230   13.7540   26.6670 C.3       1 JOT         0.1532
     13 C1         22.8210   11.7730   25.7750 C.2       1 JOT         0.2091
     14 C2         23.9790   12.2300   26.6170 C.3       1 JOT         0.0832
     15 O1         22.6550   10.6720   25.2790 O.2       1 JOT        -0.3860
     16 O2         21.8060   15.0450   26.2190 O.2       1 JOT        -0.3835
     17 O3         24.9470   16.1980   27.3350 O.2       1 JOT        -0.3939
     18 H1         25.3017   16.2846   30.0284 H         1 JOT         0.0659
     19 H2         23.9112   15.1733   30.2700 H         1 JOT         0.0659
     20 H3         20.0913   17.9317   30.0760 H         1 JOT         0.0600
     21 H4         24.9384   18.6384   29.6082 H         1 JOT         0.0561
     22 H5         23.4158   20.5660   29.7679 H         1 JOT         0.0600
     23 H6         20.9953   20.2150   30.0028 H         1 JOT         0.0561
     24 H7         21.6039   15.9943   29.9163 H         1 JOT         0.0561
     25 H8         21.0483   12.7386   25.2013 H         1 JOT         0.2257
     26 H9         23.7517   13.6984   28.7746 H         1 JOT         0.1886
     27 H10        24.5563   14.2331   26.0016 H         1 JOT         0.0832
     28 H11        23.9225   11.7979   27.6270 H         1 JOT         0.0556
     29 H12        24.9354   11.9500   26.1513 H         1 JOT         0.0556
@<TRIPOS>BOND
     1    1   10 1  
     2   12    1 1  
     3    1   16 2  
     4    2    3 1  
     5   11    2 am 
     6    2   17 2  
     7    3    5 1  
     8    4    8 ar 
     9    9    4 ar 
    10    5    6 ar 
    11    5    9 ar 
    12    6    7 ar 
    13    7    8 ar 
    14   10   13 am 
    15   12   11 1  
    16   12   14 1  
    17   13   14 1  
    18   13   15 2  
    19    3   18 1  
    20    3   19 1  
    21    4   20 1  
    22    6   21 1  
    23    7   22 1  
    24    8   23 1  
    25    9   24 1  
    26   10   25 1  
    27   11   26 1  
    28   12   27 1  
    29   14   28 1  
    30   14   29 1  
@<TRIPOS>SUBSTRUCTURE
     1 JOT         1

