### 
### Created by X-TOOL on Sat Aug  7 21:31:19 2021
### 

@<TRIPOS>MOLECULE
6r13_ligand
   32    33     1     0     0
SMALL
GAST_HUCK


@<TRIPOS>ATOM
      1 C4         22.6270   13.7670   26.3310 C.2       1 JOK         0.2325
      2 C5         25.0190   15.1060   28.1640 C.2       1 JOK         0.1803
      3 C6         25.2670   15.4350   29.5840 C.3       1 JOK         0.0470
      4 C11        20.9040   18.0230   30.3770 C.ar      1 JOK        -0.0687
      5 C7         24.9050   16.6060   30.0940 C.3       1 JOK        -0.0022
      6 C8         23.5330   17.1060   30.1950 C.ar      1 JOK        -0.0408
      7 C9         22.5050   16.4880   29.4860 C.ar      1 JOK        -0.0602
      8 C10        21.2030   16.9370   29.5870 C.ar      1 JOK        -0.0686
      9 C12        21.8990   18.6460   31.0920 C.ar      1 JOK        -0.0686
     10 C13        23.2020   18.1880   31.0100 C.ar      1 JOK        -0.0602
     11 N1         22.1370   12.7120   25.6160 N.am      1 JOK        -0.1975
     12 N2         24.4230   13.9320   27.9690 N.am      1 JOK        -0.2629
     13 C3         24.0770   13.4820   26.6440 C.3       1 JOK         0.1531
     14 C1         22.9740   11.6240   25.6180 C.2       1 JOK         0.2091
     15 C2         24.1930   11.9670   26.4280 C.3       1 JOK         0.0832
     16 O1         22.7390   10.5860   25.0270 O.2       1 JOK        -0.3860
     17 O2         22.0100   14.7520   26.6560 O.2       1 JOK        -0.3835
     18 O3         25.3620   15.8390   27.2360 O.2       1 JOK        -0.3967
     19 H1         26.3529   15.3508   29.7380 H         1 JOK         0.0525
     20 H2         24.7517   14.6648   30.1766 H         1 JOK         0.0525
     21 H3         19.8846   18.3870   30.4355 H         1 JOK         0.0559
     22 H4         25.4452   17.3595   29.5020 H         1 JOK         0.0451
     23 H5         25.2896   16.6047   31.1246 H         1 JOK         0.0451
     24 H6         22.7305   15.6427   28.8460 H         1 JOK         0.0557
     25 H7         20.4137   16.4320   29.0419 H         1 JOK         0.0599
     26 H8         21.6626   19.4969   31.7206 H         1 JOK         0.0599
     27 H9         23.9773   18.6777   31.5881 H         1 JOK         0.0557
     28 H10        21.2580   12.7301   25.1395 H         1 JOK         0.2257
     29 H11        24.2115   13.3519   28.7556 H         1 JOK         0.1884
     30 H12        24.7292   14.0044   25.9286 H         1 JOK         0.0831
     31 H13        24.1872   11.4328   27.3895 H         1 JOK         0.0556
     32 H14        25.1119   11.7193   25.8765 H         1 JOK         0.0556
@<TRIPOS>BOND
     1    1   11 1  
     2   13    1 1  
     3    1   17 2  
     4    2    3 1  
     5   12    2 am 
     6    2   18 2  
     7    3    5 1  
     8    8    4 ar 
     9    9    4 ar 
    10    5    6 1  
    11    6    7 ar 
    12    6   10 ar 
    13    7    8 ar 
    14   10    9 ar 
    15   11   14 am 
    16   13   12 1  
    17   13   15 1  
    18   14   15 1  
    19   14   16 2  
    20    3   19 1  
    21    3   20 1  
    22    4   21 1  
    23    5   22 1  
    24    5   23 1  
    25    7   24 1  
    26    8   25 1  
    27    9   26 1  
    28   10   27 1  
    29   11   28 1  
    30   12   29 1  
    31   13   30 1  
    32   15   31 1  
    33   15   32 1  
@<TRIPOS>SUBSTRUCTURE
     1 JOK         1

