### 
### Created by X-TOOL on Sat Aug  7 21:31:18 2021
### 

@<TRIPOS>MOLECULE
6r18_ligand
   36    37     1     0     0
SMALL
GAST_HUCK


@<TRIPOS>ATOM
      1 C4         22.7150   13.9580   26.3830 C.2       1 JOQ         0.2324
      2 C5         25.0780   15.3420   28.2460 C.2       1 JOQ         0.3239
      3 C6         25.5120   16.8840   29.9790 C.3       1 JOQ         0.1083
      4 C11        29.1400   17.5600   29.1430 C.ar      1 JOQ        -0.0617
      5 C7         26.9990   17.0400   30.1100 C.ar      1 JOQ        -0.0197
      6 C8         27.6300   16.8110   31.3210 C.ar      1 JOQ        -0.0641
      7 C9         29.0010   16.9550   31.4410 C.ar      1 JOQ        -0.0617
      8 C10        29.7740   17.3310   30.3540 C.ar      1 JOQ        -0.0054
      9 C12        27.7690   17.4160   29.0230 C.ar      1 JOQ        -0.0641
     10 C13        31.2700   17.4880   30.4860 C.3       1 JOQ        -0.0046
     11 N1         22.1820   12.8100   25.8660 N.am      1 JOQ        -0.1975
     12 N2         24.5080   14.1520   28.0120 N.am      1 JOQ        -0.2384
     13 C3         24.1770   13.7080   26.6860 C.3       1 JOQ         0.1549
     14 N3         31.6450   18.3210   31.6340 N.4       1 JOQ         0.2299
     15 C1         23.0780   11.7700   25.8150 C.2       1 JOQ         0.2091
     16 C2         24.3350   12.1920   26.5220 C.3       1 JOQ         0.0832
     17 O1         22.8550   10.6990   25.2770 O.2       1 JOQ        -0.3860
     18 O2         22.1160   15.0010   26.5660 O.2       1 JOQ        -0.3835
     19 O3         25.2010   15.5290   29.5680 O.3       1 JOQ        -0.2517
     20 O4         25.4280   16.1260   27.3940 O.2       1 JOQ        -0.3773
     21 H1         25.1344   17.5911   29.2257 H         1 JOQ         0.0763
     22 H2         25.0350   17.0914   30.9483 H         1 JOQ         0.0763
     23 H3         29.7251   17.8554   28.2796 H         1 JOQ         0.0542
     24 H4         27.0440   16.5159   32.1839 H         1 JOQ         0.0541
     25 H5         29.4765   16.7713   32.3977 H         1 JOQ         0.0542
     26 H6         27.2926   17.5998   28.0668 H         1 JOQ         0.0541
     27 H7         31.6587   17.9546   29.5689 H         1 JOQ         0.0965
     28 H8         31.7203   16.4921   30.6100 H         1 JOQ         0.0965
     29 H9         21.2343   12.7349   25.5559 H         1 JOQ         0.2257
     30 H10        24.3061   13.5525   28.7865 H         1 JOQ         0.1901
     31 H11        24.8164   14.2369   25.9639 H         1 JOQ         0.0831
     32 H12        32.6491   18.3965   31.6806 H         1 JOQ         0.2007
     33 H13        31.3001   17.8993   32.4821 H         1 JOQ         0.2007
     34 H14        31.2436   19.2395   31.5281 H         1 JOQ         0.2007
     35 H15        24.4167   11.6991   27.5020 H         1 JOQ         0.0556
     36 H16        25.2224   11.9545   25.9170 H         1 JOQ         0.0556
@<TRIPOS>BOND
     1    1   11 1  
     2   13    1 1  
     3    1   18 2  
     4   12    2 am 
     5    2   19 1  
     6    2   20 2  
     7    3    5 1  
     8   19    3 1  
     9    4    8 ar 
    10    9    4 ar 
    11    5    6 ar 
    12    5    9 ar 
    13    6    7 ar 
    14    7    8 ar 
    15    8   10 1  
    16   10   14 1  
    17   11   15 am 
    18   13   12 1  
    19   13   16 1  
    20   15   16 1  
    21   15   17 2  
    22    3   21 1  
    23    3   22 1  
    24    4   23 1  
    25    6   24 1  
    26    7   25 1  
    27    9   26 1  
    28   10   27 1  
    29   10   28 1  
    30   11   29 1  
    31   12   30 1  
    32   13   31 1  
    33   14   32 1  
    34   14   33 1  
    35   14   34 1  
    36   16   35 1  
    37   16   36 1  
@<TRIPOS>SUBSTRUCTURE
     1 JOQ         1

