### 
### Created by X-TOOL on Sat Aug  7 21:31:18 2021
### 

@<TRIPOS>MOLECULE
6r1a_ligand
   36    37     1     0     0
SMALL
GAST_HUCK


@<TRIPOS>ATOM
      1 C4         25.7800  -14.0580   -1.8300 C.3       1 JP8         0.0467
      2 C5         24.3950  -14.5690   -2.1630 C.2       1 JP8         0.2047
      3 C6         25.4530  -13.4360    2.8930 C.2       1 JP8         0.3220
      4 C11        26.5100  -13.8840    8.7130 C.3       1 JP8        -0.0331
      5 C7         26.8630  -13.6770    5.0220 C.3       1 JP8         0.1197
      6 C8         26.2740  -13.5570    6.4170 C.3       1 JP8         0.0058
      7 C9         25.2860  -14.6460    6.8070 C.3       1 JP8        -0.0024
      8 C10        25.3330  -14.7700    8.3120 C.3       1 JP8        -0.0074
      9 N1         23.4910  -14.7490   -1.1870 N.am      1 JP8        -0.1978
     10 N2         25.2880  -14.2920    1.8910 N.am      1 JP8        -0.2406
     11 C3         26.1040  -14.3520   -0.3670 C.3       1 JP8         0.0054
     12 N3         27.2740  -13.6040    7.5160 N.4       1 JP8         0.2310
     13 C1         23.6650  -14.4790    0.0990 C.2       1 JP8         0.2302
     14 C2         24.9630  -13.8690    0.5290 C.3       1 JP8         0.1400
     15 O1         22.7790  -14.7490    0.9050 O.2       1 JP8        -0.3837
     16 O2         24.0850  -14.8000   -3.3280 O.2       1 JP8        -0.3862
     17 O3         25.7590  -14.0450    4.1490 O.3       1 JP8        -0.2582
     18 O4         25.3410  -12.2190    2.7850 O.2       1 JP8        -0.3774
     19 H1         25.8192  -12.9721   -2.0012 H         1 JP8         0.0510
     20 H2         26.5180  -14.5577   -2.4746 H         1 JP8         0.0510
     21 H3         27.1407  -14.4073    9.4467 H         1 JP8         0.0814
     22 H4         26.1407  -12.9448    9.1506 H         1 JP8         0.0814
     23 H5         27.6413  -14.4540    5.0016 H         1 JP8         0.0668
     24 H6         27.2957  -12.7162    4.7062 H         1 JP8         0.0668
     25 H7         25.7566  -12.5869    6.4515 H         1 JP8         0.0877
     26 H8         25.5726  -15.6001    6.3407 H         1 JP8         0.0322
     27 H9         24.2720  -14.3693    6.4827 H         1 JP8         0.0322
     28 H10        24.3979  -14.4082    8.7645 H         1 JP8         0.0319
     29 H11        25.5069  -15.8133    8.6141 H         1 JP8         0.0319
     30 H12        22.6028  -15.1219   -1.4554 H         1 JP8         0.2257
     31 H13        25.3905  -15.2694    2.0760 H         1 JP8         0.1899
     32 H14        27.0318  -13.8313   -0.0877 H         1 JP8         0.0337
     33 H15        26.2375  -15.4357   -0.2342 H         1 JP8         0.0337
     34 H16        27.9489  -14.3338    7.3487 H         1 JP8         0.2017
     35 H17        27.7495  -12.7191    7.5991 H         1 JP8         0.2017
     36 H18        24.8848  -12.7728    0.4815 H         1 JP8         0.0806
@<TRIPOS>BOND
     1    1    2 1  
     2   11    1 1  
     3    2    9 1  
     4    2   16 2  
     5   10    3 am 
     6    3   17 1  
     7    3   18 2  
     8    4    8 1  
     9   12    4 1  
    10    5    6 1  
    11   17    5 1  
    12    6    7 1  
    13    6   12 1  
    14    7    8 1  
    15    9   13 am 
    16   14   10 1  
    17   14   11 1  
    18   13   14 1  
    19   13   15 2  
    20    1   19 1  
    21    1   20 1  
    22    4   21 1  
    23    4   22 1  
    24    5   23 1  
    25    5   24 1  
    26    6   25 1  
    27    7   26 1  
    28    7   27 1  
    29    8   28 1  
    30    8   29 1  
    31    9   30 1  
    32   10   31 1  
    33   11   32 1  
    34   11   33 1  
    35   12   34 1  
    36   12   35 1  
    37   14   36 1  
@<TRIPOS>SUBSTRUCTURE
     1 JP8         1

