### 
### Created by X-TOOL on Sat Aug  7 21:31:19 2021
### 

@<TRIPOS>MOLECULE
6r1c_ligand
   45    46     1     0     0
SMALL
GAST_HUCK


@<TRIPOS>ATOM
      1 C4         22.6220   13.8800   26.3470 C.2       1 JOW         0.2324
      2 C14        32.6700   19.7290   30.0200 C.2       1 JOW         0.1793
      3 C5         24.9890   15.2680   28.2450 C.2       1 JOW         0.3239
      4 C6         25.5370   16.7200   30.0230 C.3       1 JOW         0.1083
      5 C11        29.3110   16.5160   30.1990 C.ar      1 JOW        -0.0648
      6 C7         26.9920   17.0380   29.8330 C.ar      1 JOW        -0.0197
      7 C8         27.3820   18.1520   29.1110 C.ar      1 JOW        -0.0643
      8 C9         28.7230   18.4460   28.9350 C.ar      1 JOW        -0.0648
      9 C10        29.7050   17.6310   29.4770 C.ar      1 JOW        -0.0277
     10 C12        27.9700   16.2230   30.3750 C.ar      1 JOW        -0.0643
     11 C13        31.1660   17.9510   29.2860 C.3       1 JOW         0.0614
     12 N1         22.1080   12.7260   25.8250 N.am      1 JOW        -0.1975
     13 N2         24.3790   14.0980   28.0110 N.am      1 JOW        -0.2384
     14 C3         24.0790   13.6440   26.6810 C.3       1 JOW         0.1549
     15 N3         31.4860   19.3450   29.5550 N.am      1 JOW        -0.2765
     16 C1         23.0150   11.6930   25.7970 C.2       1 JOW         0.2091
     17 C2         24.2520   12.1280   26.5300 C.3       1 JOW         0.0832
     18 O1         22.8130   10.6190   25.2570 O.2       1 JOW        -0.3860
     19 O2         22.0100   14.9190   26.5130 O.2       1 JOW        -0.3835
     20 O3         25.2700   15.3750   29.5520 O.3       1 JOW        -0.2517
     21 O4         25.2470   16.1000   27.4050 O.2       1 JOW        -0.3773
     22 C15        32.7970   19.8090   31.5190 C.3       1 JOW         0.0488
     23 O5         33.6120   20.0050   29.2800 O.2       1 JOW        -0.3968
     24 C16        31.8080   18.9120   32.2250 C.3       1 JOW         0.0171
     25 C17        32.3590   17.5590   32.6400 C.2       1 JOW         0.0370
     26 O6         33.5760   17.3440   32.4810 O.co2     1 JOW        -0.5689
     27 O7         31.5680   16.7230   33.1220 O.co2     1 JOW        -0.5689
     28 H1         24.9277   17.4360   29.4520 H         1 JOW         0.0763
     29 H2         25.2825   16.7917   31.0907 H         1 JOW         0.0763
     30 H3         30.0624   15.8652   30.6313 H         1 JOW         0.0540
     31 H4         26.6294   18.8014   28.6786 H         1 JOW         0.0541
     32 H5         29.0088   19.3237   28.3667 H         1 JOW         0.0540
     33 H6         27.6828   15.3458   30.9434 H         1 JOW         0.0541
     34 H7         31.4409   17.7234   28.2455 H         1 JOW         0.0670
     35 H8         31.7546   17.3192   29.9674 H         1 JOW         0.0670
     36 H9         21.1672   12.6416   25.4966 H         1 JOW         0.2257
     37 H10        24.1241   13.5218   28.7876 H         1 JOW         0.1901
     38 H11        24.7289   14.1738   25.9690 H         1 JOW         0.0831
     39 H12        30.7882   20.0404   29.3833 H         1 JOW         0.1876
     40 H13        24.3146   11.6415   27.5146 H         1 JOW         0.0556
     41 H14        25.1548   11.8935   25.9470 H         1 JOW         0.0556
     42 H15        32.6205   20.8479   31.8344 H         1 JOW         0.0520
     43 H16        33.8154   19.5071   31.8047 H         1 JOW         0.0520
     44 H17        30.9569   18.7422   31.5491 H         1 JOW         0.0455
     45 H18        31.4598   19.4318   33.1297 H         1 JOW         0.0455
@<TRIPOS>BOND
     1    1   12 1  
     2   14    1 1  
     3    1   19 2  
     4   15    2 am 
     5    2   22 1  
     6    2   23 2  
     7   13    3 am 
     8    3   20 1  
     9    3   21 2  
    10    4    6 1  
    11   20    4 1  
    12    5    9 ar 
    13   10    5 ar 
    14    6    7 ar 
    15    6   10 ar 
    16    7    8 ar 
    17    8    9 ar 
    18    9   11 1  
    19   11   15 1  
    20   12   16 am 
    21   13   14 1  
    22   14   17 1  
    23   17   16 1  
    24   16   18 2  
    25   22   24 1  
    26   24   25 1  
    27   25   26 ar 
    28   25   27 ar 
    29    4   28 1  
    30    4   29 1  
    31    5   30 1  
    32    7   31 1  
    33    8   32 1  
    34   10   33 1  
    35   11   34 1  
    36   11   35 1  
    37   12   36 1  
    38   13   37 1  
    39   14   38 1  
    40   15   39 1  
    41   17   40 1  
    42   17   41 1  
    43   22   42 1  
    44   22   43 1  
    45   24   44 1  
    46   24   45 1  
@<TRIPOS>SUBSTRUCTURE
     1 JOW         1

