### 
### Created by X-TOOL on Mon Aug  2 16:16:42 2021
### 

@<TRIPOS>MOLECULE
6r1d_ligand
   30    31     1     0     0
SMALL
GAST_HUCK


@<TRIPOS>ATOM
      1 O           8.0210    5.3750    2.9570 O.2       1 JP5        -0.3835
      2 C           8.0830    4.7150    3.9880 C.2       1 JP5         0.2324
      3 ND2         7.6950    3.4060    4.0620 N.am      1 JP5        -0.1975
      4 CG          7.7810    2.9140    5.3280 C.2       1 JP5         0.2091
      5 OD1         7.5280    1.7920    5.6450 O.2       1 JP5        -0.3860
      6 CB          8.2480    4.0090    6.2750 C.3       1 JP5         0.0832
      7 CA          8.6270    5.1290    5.3070 C.3       1 JP5         0.1549
      8 N           8.2090    6.4620    5.6890 N.am      1 JP5        -0.2384
      9 CAI         8.8920    7.5050    5.4060 C.2       1 JP5         0.3241
     10 OAK        10.0450    7.5190    4.9250 O.2       1 JP5        -0.3773
     11 OAJ         8.2410    8.6610    5.6880 O.3       1 JP5        -0.2505
     12 CAL         8.8580    9.9380    5.5280 C.3       1 JP5         0.1113
     13 CAM         9.8650   10.2270    6.5680 C.ar      1 JP5        -0.0130
     14 CAN        11.1670   10.4730    6.1900 C.ar      1 JP5        -0.0578
     15 CAO        12.0870   10.7200    7.0600 C.ar      1 JP5        -0.0685
     16 CAP        11.9060   10.8690    8.4740 C.ar      1 JP5        -0.0687
     17 CAQ        10.5430   10.6550    8.8070 C.ar      1 JP5        -0.0685
     18 CAR         9.6180   10.2770    7.9070 C.ar      1 JP5        -0.0578
     19 H1          7.3838    2.8715    3.2762 H         1 JP5         0.2257
     20 H2          9.1158    3.6820    6.8666 H         1 JP5         0.0556
     21 H3          7.4399    4.3229    6.9520 H         1 JP5         0.0556
     22 H4          9.7245    5.1556    5.2376 H         1 JP5         0.0831
     23 H5          7.3527    6.5708    6.1939 H         1 JP5         0.1901
     24 H6          8.0777   10.7121    5.5711 H         1 JP5         0.0776
     25 H7          9.3508    9.9684    4.5450 H         1 JP5         0.0776
     26 H8         11.4242   10.4587    5.1371 H         1 JP5         0.0557
     27 H9         13.0982   10.8254    6.6840 H         1 JP5         0.0599
     28 H10        12.6912   11.1088    9.1819 H         1 JP5         0.0559
     29 H11        10.2330   10.8032    9.8351 H         1 JP5         0.0599
     30 H12         8.6322    9.9998    8.2626 H         1 JP5         0.0557
@<TRIPOS>BOND
     1    1    2 2  
     2    2    3 am 
     3    2    7 1  
     4    3    4 am 
     5    4    5 2  
     6    4    6 1  
     7    6    7 1  
     8    7    8 1  
     9    8    9 am 
    10    9   10 2  
    11    9   11 1  
    12   11   12 1  
    13   12   13 1  
    14   13   14 ar 
    15   13   18 ar 
    16   14   15 ar 
    17   15   16 ar 
    18   16   17 ar 
    19   17   18 ar 
    20    3   19 1  
    21    6   20 1  
    22    6   21 1  
    23    7   22 1  
    24    8   23 1  
    25   12   24 1  
    26   12   25 1  
    27   14   26 1  
    28   15   27 1  
    29   16   28 1  
    30   17   29 1  
    31   18   30 1  
@<TRIPOS>SUBSTRUCTURE
     1 JP5         1

