### 
### Created by X-TOOL on Mon Aug  2 16:16:42 2021
### 

@<TRIPOS>MOLECULE
6r1k_ligand
   26    27     1     0     0
SMALL
GAST_HUCK


@<TRIPOS>ATOM
      1 C4         24.2580   18.0670   -7.0440 C.3       1 JPB         0.1527
      2 C5         25.8920   19.8400   -7.1630 C.2       1 JPB         0.2078
      3 C6         26.2650   21.1590   -7.7620 C.ar      1 JPB         0.0773
      4 C11        26.3750   22.2800   -6.9390 C.ar      1 JPB         0.0612
      5 C7         26.5970   21.2830   -9.1120 C.ar      1 JPB         0.0612
      6 C8         26.9900   22.4970   -9.6510 C.ar      1 JPB        -0.0283
      7 C9         27.0700   23.5860   -8.8080 C.ar      1 JPB         0.0459
      8 C10        26.7580   23.5050   -7.4630 C.ar      1 JPB        -0.0283
      9 N1         23.3870   16.3780   -8.3660 N.am      1 JPB        -0.1975
     10 N2         24.7070   19.3410   -7.4880 N.am      1 JPB        -0.2624
     11 C3         22.7340   18.0330   -6.8540 C.3       1 JPB         0.0832
     12 O1         25.5730   16.9940   -8.7910 O.2       1 JPB        -0.3835
     13 C1         24.5300   17.0870   -8.1520 C.2       1 JPB         0.2324
     14 C2         22.3050   16.8350   -7.6550 C.2       1 JPB         0.2091
     15 O2         21.2180   16.2900   -7.6580 O.2       1 JPB        -0.3860
     16 O3         26.6400   19.2610   -6.3760 O.2       1 JPB        -0.3847
     17 CL1        26.5000   19.9250  -10.1960 Cl        1 JPB        -0.0648
     18 CL2        27.5820   25.1070   -9.4660 Cl        1 JPB        -0.0667
     19 CL3        25.9710   22.1790   -5.2350 Cl        1 JPB        -0.0648
     20 H1         24.7733   17.7835   -6.1145 H         1 JPB         0.0831
     21 H2         27.2278   22.5886  -10.7046 H         1 JPB         0.0641
     22 H3         26.8120   24.3834   -6.8301 H         1 JPB         0.0641
     23 H4         23.3400   15.5945   -8.9857 H         1 JPB         0.2257
     24 H5         24.1028   19.8845   -8.0708 H         1 JPB         0.1878
     25 H6         22.2692   18.9515   -7.2416 H         1 JPB         0.0556
     26 H7         22.4731   17.9097   -5.7925 H         1 JPB         0.0556
@<TRIPOS>BOND
     1   10    1 1  
     2    1   11 1  
     3    1   13 1  
     4    2    3 1  
     5    2   10 am 
     6    2   16 2  
     7    3    4 ar 
     8    3    5 ar 
     9    4    8 ar 
    10    4   19 1  
    11    5    6 ar 
    12    5   17 1  
    13    6    7 ar 
    14    7    8 ar 
    15    7   18 1  
    16   13    9 am 
    17    9   14 am 
    18   11   14 1  
    19   13   12 2  
    20   14   15 2  
    21    1   20 1  
    22    6   21 1  
    23    8   22 1  
    24    9   23 1  
    25   10   24 1  
    26   11   25 1  
    27   11   26 1  
@<TRIPOS>SUBSTRUCTURE
     1 JPB         1

