### 
### Created by X-TOOL on Sat Aug  7 21:31:18 2021
### 

@<TRIPOS>MOLECULE
6r1w_ligand
   42    43     1     0     0
SMALL
GAST_HUCK


@<TRIPOS>ATOM
      1 C4         23.5300   19.4920   30.4070 C.3       1 JPW        -0.0129
      2 C5         22.0210   19.5490   30.2110 C.3       1 JPW        -0.0427
      3 C6         21.4040   20.8760   30.6380 C.3       1 JPW        -0.0094
      4 C11        23.0890   12.0320   25.7440 C.2       1 JPW         0.2047
      5 C7         21.7940   21.1810   32.0710 C.3       1 JPW        -0.0244
      6 C8         23.3000   21.3120   32.1860 C.3       1 JPW        -0.0094
      7 C9         23.9700   20.0060   31.7800 C.3       1 JPW        -0.0427
      8 C10        22.4940   14.4060   26.0090 C.2       1 JPW         0.2302
      9 C12        24.2350   12.2140   26.6680 C.3       1 JPW         0.0467
     10 C13        24.0860   13.3610   27.6460 C.3       1 JPW         0.0054
     11 N1         23.2340   15.6250   27.9490 N.am      1 JPW        -0.2406
     12 N2         21.1130   22.4240   32.5630 N.4       1 JPW         0.2207
     13 C3         24.0580   18.0820   30.2230 C.3       1 JPW         0.0801
     14 N3         22.2710   13.1330   25.5660 N.am      1 JPW        -0.1978
     15 C1         23.5970   14.6200   26.9570 C.3       1 JPW         0.1400
     16 C2         24.0510   16.5470   28.4040 C.2       1 JPW         0.3218
     17 O1         23.2970   17.3390   29.2390 O.3       1 JPW        -0.2636
     18 O2         25.2190   16.6790   28.0860 O.2       1 JPW        -0.3774
     19 O3         21.7820   15.3130   25.6150 O.2       1 JPW        -0.3837
     20 O4         22.8430   10.9780   25.2100 O.2       1 JPW        -0.3862
     21 H1         23.9875   20.1349   29.6406 H         1 JPW         0.0326
     22 H2         21.5618   18.7443   30.8040 H         1 JPW         0.0271
     23 H3         21.8017   19.3897   29.1449 H         1 JPW         0.0271
     24 H4         20.3085   20.8113   30.5627 H         1 JPW         0.0320
     25 H5         21.7700   21.6783   29.9805 H         1 JPW         0.0320
     26 H6         21.4707   20.3405   32.7026 H         1 JPW         0.0850
     27 H7         23.5664   21.5497   33.2264 H         1 JPW         0.0320
     28 H8         23.6467   22.1199   31.5249 H         1 JPW         0.0320
     29 H9         25.0582   20.1654   31.7592 H         1 JPW         0.0271
     30 H10        23.7256   19.2415   32.5321 H         1 JPW         0.0271
     31 H11        25.1364   12.3942   26.0639 H         1 JPW         0.0510
     32 H12        24.3599   11.2861   27.2453 H         1 JPW         0.0510
     33 H13        25.0624   13.5640   28.1100 H         1 JPW         0.0337
     34 H14        23.3626   13.0755   28.4239 H         1 JPW         0.0337
     35 H15        22.3003   15.6113   28.3069 H         1 JPW         0.1899
     36 H16        20.1144   22.3161   32.4780 H         1 JPW         0.1997
     37 H17        21.4138   23.2125   32.0119 H         1 JPW         0.1997
     38 H18        21.3531   22.5785   33.5297 H         1 JPW         0.1997
     39 H19        24.0029   17.5541   31.1864 H         1 JPW         0.0614
     40 H20        25.1062   18.1359   29.8938 H         1 JPW         0.0614
     41 H21        21.4236   12.9806   25.0574 H         1 JPW         0.2257
     42 H22        24.4431   15.0154   26.3759 H         1 JPW         0.0806
@<TRIPOS>BOND
     1    1    2 1  
     2    1    7 1  
     3   13    1 1  
     4    2    3 1  
     5    3    5 1  
     6    9    4 1  
     7   14    4 1  
     8    4   20 2  
     9    6    5 1  
    10    5   12 1  
    11    7    6 1  
    12    8   14 am 
    13   15    8 1  
    14    8   19 2  
    15   10    9 1  
    16   15   10 1  
    17   11   15 1  
    18   16   11 am 
    19   17   13 1  
    20   16   17 1  
    21   16   18 2  
    22    1   21 1  
    23    2   22 1  
    24    2   23 1  
    25    3   24 1  
    26    3   25 1  
    27    5   26 1  
    28    6   27 1  
    29    6   28 1  
    30    7   29 1  
    31    7   30 1  
    32    9   31 1  
    33    9   32 1  
    34   10   33 1  
    35   10   34 1  
    36   11   35 1  
    37   12   36 1  
    38   12   37 1  
    39   12   38 1  
    40   13   39 1  
    41   13   40 1  
    42   14   41 1  
    43   15   42 1  
@<TRIPOS>SUBSTRUCTURE
     1 JPW         1

