### 
### Created by X-TOOL on Mon Aug  2 16:16:42 2021
### 

@<TRIPOS>MOLECULE
6r1x_ligand
   26    26     1     0     0
SMALL
GAST_HUCK


@<TRIPOS>ATOM
      1 C4         23.7550   17.3760   -6.8120 C.3       1 JPQ         0.1514
      2 C5         25.4450   19.0610   -6.4190 C.2       1 JPQ         0.1612
      3 C6         25.8040   20.4880   -6.5570 C.2       1 JPQ        -0.0138
      4 C7         26.6670   21.1700   -5.7830 C.2       1 JPQ        -0.0479
      5 C8         27.1030   22.5720   -6.1160 C.3       1 JPQ        -0.0195
      6 C9         27.2920   20.6350   -4.5180 C.3       1 JPQ        -0.0195
      7 N1         22.8590   15.7860   -8.2500 N.am      1 JPQ        -0.1975
      8 N2         24.2850   18.6950   -6.9870 N.am      1 JPQ        -0.2717
      9 C3         22.2360   17.3270   -6.6130 C.3       1 JPQ         0.0830
     10 O1         25.0120   16.4910   -8.7120 O.2       1 JPQ        -0.3835
     11 C1         23.9890   16.5230   -8.0400 C.2       1 JPQ         0.2322
     12 C2         21.8040   16.1550   -7.4470 C.2       1 JPQ         0.2091
     13 O2         20.7600   15.5390   -7.3730 O.2       1 JPQ        -0.3860
     14 O3         26.1590   18.2560   -5.8260 O.2       1 JPQ        -0.4129
     15 H1         24.2515   16.9244   -5.9405 H         1 JPQ         0.0829
     16 H2         25.3235   21.0405   -7.3631 H         1 JPQ         0.0282
     17 H3         27.8063   22.9291   -5.3493 H         1 JPQ         0.0470
     18 H4         26.2239   23.2326   -6.1434 H         1 JPQ         0.0470
     19 H5         27.5975   22.5786   -7.0986 H         1 JPQ         0.0470
     20 H6         26.9318   19.6118   -4.3354 H         1 JPQ         0.0470
     21 H7         27.0131   21.2785   -3.6706 H         1 JPQ         0.0470
     22 H8         28.3866   20.6245   -4.6258 H         1 JPQ         0.0470
     23 H9         22.8033   15.0485   -8.9230 H         1 JPQ         0.2257
     24 H10        23.7812   19.3561   -7.5430 H         1 JPQ         0.1856
     25 H11        21.7640   18.2553   -6.9672 H         1 JPQ         0.0556
     26 H12        21.9842   17.1685   -5.5540 H         1 JPQ         0.0556
@<TRIPOS>BOND
     1    8    1 1  
     2    1    9 1  
     3    1   11 1  
     4    2    3 1  
     5    2    8 am 
     6    2   14 2  
     7    3    4 2  
     8    4    5 1  
     9    4    6 1  
    10   11    7 am 
    11    7   12 am 
    12    9   12 1  
    13   11   10 2  
    14   12   13 2  
    15    1   15 1  
    16    3   16 1  
    17    5   17 1  
    18    5   18 1  
    19    5   19 1  
    20    6   20 1  
    21    6   21 1  
    22    6   22 1  
    23    7   23 1  
    24    8   24 1  
    25    9   25 1  
    26    9   26 1  
@<TRIPOS>SUBSTRUCTURE
     1 JPQ         1

