### 
### Created by X-TOOL on Mon Aug  2 16:11:31 2021
### 

@<TRIPOS>MOLECULE
6r49_ligand
   44    47     1     0     0
SMALL
GAST_HUCK


@<TRIPOS>ATOM
      1 C10       -10.8870   10.9890  -13.0660 C.3       1 JSB        -0.0282
      2 C15        -9.8120   13.8060  -17.0910 C.ar      1 JSB         0.0320
      3 C20       -11.9990   15.7290  -17.0180 C.ar      1 JSB        -0.0393
      4 C21       -12.2350   14.3520  -16.8200 C.ar      1 JSB        -0.0414
      5 C01        -8.3380    8.8960  -19.0710 C.3       1 JSB        -0.0581
      6 C02        -9.6030    9.0240  -18.1930 C.3       1 JSB         0.0062
      7 C03        -9.6940    7.8470  -17.2120 C.3       1 JSB        -0.0581
      8 C04        -9.6960   10.4520  -17.4940 C.3       1 JSB         0.0697
      9 C05       -11.0410   11.1170  -17.8410 C.3       1 JSB         0.0250
     10 C06       -11.5250   11.9400  -16.6320 C.3       1 JSB         0.1457
     11 O07       -12.8970   11.6770  -16.4330 O.3       1 JSB        -0.4088
     12 N08       -10.7350   11.3310  -15.5290 N.am      1 JSB        -0.2710
     13 C09       -10.6390   11.9250  -14.2140 C.3       1 JSB         0.0386
     14 C11       -11.9580   12.0990  -13.4980 C.3       1 JSB        -0.0282
     15 C12        -9.6760   10.5320  -15.9340 C.2       1 JSB         0.2431
     16 O13        -8.8760   10.0510  -15.1430 O.2       1 JSB        -0.3390
     17 C14       -11.1750   13.4200  -16.8440 C.ar      1 JSB         0.0079
     18 C16        -8.5600   12.7590  -17.1360 C.3       1 JSB         0.0152
     19 N17        -8.6270   11.4400  -17.9270 N.4       1 JSB         0.2486
     20 C18        -9.6260   15.1990  -17.2880 C.ar      1 JSB        -0.0242
     21 C19       -10.6850   16.1510  -17.2570 C.ar      1 JSB        -0.0404
     22 H1        -10.3218   11.0983  -12.1287 H         1 JSB         0.0288
     23 H2        -11.0865    9.9233  -13.2518 H         1 JSB         0.0288
     24 H3        -12.8144   16.4425  -16.9859 H         1 JSB         0.0648
     25 H4        -13.2469   14.0041  -16.6466 H         1 JSB         0.0819
     26 H5         -8.3123    7.8984  -19.5338 H         1 JSB         0.0233
     27 H6         -7.4429    9.0337  -18.4467 H         1 JSB         0.0233
     28 H7         -8.3583    9.6647  -19.8576 H         1 JSB         0.0233
     29 H8        -10.4722    8.9470  -18.8627 H         1 JSB         0.0340
     30 H9         -9.6224    6.9003  -17.7676 H         1 JSB         0.0233
     31 H10       -10.6553    7.8875  -16.6789 H         1 JSB         0.0233
     32 H11        -8.8695    7.9096  -16.4866 H         1 JSB         0.0233
     33 H12       -11.7841   10.3419  -18.0798 H         1 JSB         0.0252
     34 H13       -10.9107   11.7799  -18.7091 H         1 JSB         0.0252
     35 H14       -13.3987   12.0672  -17.1390 H         1 JSB         0.1966
     36 H15        -9.8539   12.6938  -14.1645 H         1 JSB         0.0552
     37 H16       -12.1343   12.9793  -12.8625 H         1 JSB         0.0288
     38 H17       -12.8990   11.8044  -13.9856 H         1 JSB         0.0288
     39 H18        -8.3531   12.4815  -16.0919 H         1 JSB         0.1061
     40 H19        -7.7050   13.3188  -17.5430 H         1 JSB         0.1061
     41 H20        -8.7941   11.6696  -18.8942 H         1 JSB         0.2038
     42 H21        -7.7326   10.9833  -17.8397 H         1 JSB         0.2038
     43 H22        -8.6204   15.5592  -17.4726 H         1 JSB         0.0638
     44 H23       -10.4740   17.2020  -17.4184 H         1 JSB         0.0834
@<TRIPOS>BOND
     1   13    1 1  
     2    1   14 1  
     3   17    2 ar 
     4    2   18 1  
     5    2   20 ar 
     6    4    3 ar 
     7    3   21 ar 
     8   17    4 ar 
     9    6    5 1  
    10    6    7 1  
    11    8    6 1  
    12    9    8 1  
    13    8   15 1  
    14    8   19 1  
    15   10    9 1  
    16   10   11 1  
    17   12   10 1  
    18   10   17 1  
    19   12   13 1  
    20   12   15 am 
    21   13   14 1  
    22   15   16 2  
    23   18   19 1  
    24   20   21 ar 
    25    1   22 1  
    26    1   23 1  
    27    3   24 1  
    28    4   25 1  
    29    5   26 1  
    30    5   27 1  
    31    5   28 1  
    32    6   29 1  
    33    7   30 1  
    34    7   31 1  
    35    7   32 1  
    36    9   33 1  
    37    9   34 1  
    38   11   35 1  
    39   13   36 1  
    40   14   37 1  
    41   14   38 1  
    42   18   39 1  
    43   18   40 1  
    44   19   41 1  
    45   19   42 1  
    46   20   43 1  
    47   21   44 1  
@<TRIPOS>SUBSTRUCTURE
     1 JSB         1

