### 
### Created by X-TOOL on Mon Aug  2 16:16:43 2021
### 

@<TRIPOS>MOLECULE
6r5f_ligand
   49    52     1     0     0
SMALL
GAST_HUCK


@<TRIPOS>ATOM
      1 C10        11.3660   11.1560    9.7530 C.3       1 JSW         0.0572
      2 C13        11.5980   12.2240    8.6950 C.2       1 JSW         0.2213
      3 C17        14.7740   13.4820    9.5490 C.3       1 JSW        -0.0054
      4 C20        13.4150   13.3120    6.2320 C.ar      1 JSW        -0.0166
      5 C21        14.3340   12.3280    5.8660 C.ar      1 JSW        -0.0287
      6 C22        14.4320   11.9640    4.5390 C.ar      1 JSW         0.1242
      7 C24        13.6480   12.4930    3.5450 C.ar      1 JSW        -0.0019
      8 C01         5.3940    9.1310   13.5860 C.3       1 JSW         0.0239
      9 C02         6.5070    8.9490   12.6130 C.2       1 JSW         0.1867
     10 C05         8.3590    9.0470   11.5540 C.2       1 JSW         0.2852
     11 C08        10.4230    8.8940   10.2320 C.3       1 JSW         0.0377
     12 C09        10.6860    9.9260    9.1450 C.3       1 JSW        -0.0123
     13 C11        10.5150   11.7090   10.9120 C.3       1 JSW        -0.0123
     14 C12        10.2060   10.6130   11.9300 C.3       1 JSW         0.0377
     15 C18        14.5930   14.2820    8.2610 C.3       1 JSW         0.0259
     16 C19        13.2760   13.7850    7.6620 C.3       1 JSW         0.1198
     17 C25        12.7440   13.4440    3.9440 C.ar      1 JSW         0.1242
     18 C27        12.5980   13.8590    5.2450 C.ar      1 JSW        -0.0287
     19 F23        15.3780   11.0550    4.1830 F         1 JSW        -0.1863
     20 F26        11.9580   14.0110    3.0020 F         1 JSW        -0.1863
     21 N03         6.3700    8.1360   11.5720 N.2       1 JSW        -0.2790
     22 N04         7.5620    8.2060   10.8820 N.2       1 JSW        -0.2661
     23 N07         9.5890    9.4700   11.2840 N.pl3     1 JSW        -0.2561
     24 N15        12.8400   12.7130    8.5780 N.am      1 JSW        -0.2277
     25 N16        13.9510   12.2880    9.3610 N.4       1 JSW         0.3687
     26 O06         7.7580    9.5510   12.6700 O.3       1 JSW        -0.1718
     27 O14        10.6820   12.6450    8.0010 O.2       1 JSW        -0.3916
     28 H1         12.3434   10.8502   10.1544 H         1 JSW         0.0541
     29 H2         14.4261   14.0605   10.4175 H         1 JSW         0.0823
     30 H3         15.8297   13.2074    9.6904 H         1 JSW         0.0823
     31 H4         14.9618   11.8565    6.6134 H         1 JSW         0.0509
     32 H5         13.7374   12.1795    2.5112 H         1 JSW         0.0532
     33 H6          4.5311    8.5244   13.2737 H         1 JSW         0.0479
     34 H7          5.1043   10.1917   13.6176 H         1 JSW         0.0479
     35 H8          5.7245    8.8112   14.5852 H         1 JSW         0.0479
     36 H9         11.3810    8.5698   10.6646 H         1 JSW         0.0526
     37 H10         9.9069    8.0274    9.7930 H         1 JSW         0.0526
     38 H11        11.3407    9.4888    8.3768 H         1 JSW         0.0312
     39 H12         9.7319   10.2251    8.6866 H         1 JSW         0.0312
     40 H13         9.5705   12.1037   10.5094 H         1 JSW         0.0312
     41 H14        11.0678   12.5187   11.4107 H         1 JSW         0.0312
     42 H15         9.5193   11.0111   12.6915 H         1 JSW         0.0526
     43 H16        11.1420   10.2935   12.4114 H         1 JSW         0.0526
     44 H17        15.4270   14.0931    7.5691 H         1 JSW         0.0364
     45 H18        14.5351   15.3583    8.4803 H         1 JSW         0.0364
     46 H19        12.5381   14.6007    7.6750 H         1 JSW         0.0774
     47 H20        11.8543   14.6049    5.5014 H         1 JSW         0.0509
     48 H21        13.6393   11.9310   10.2506 H         1 JSW         0.2278
     49 H22        14.4714   11.5739    8.8760 H         1 JSW         0.2278
@<TRIPOS>BOND
     1    2    1 1  
     2    1   12 1  
     3    1   13 1  
     4   24    2 am 
     5    2   27 2  
     6   15    3 1  
     7    3   25 1  
     8    4    5 ar 
     9   16    4 1  
    10    4   18 ar 
    11    5    6 ar 
    12    6    7 ar 
    13    6   19 1  
    14    7   17 ar 
    15    9    8 1  
    16    9   21 2  
    17   26    9 1  
    18   10   22 2  
    19   23   10 1  
    20   10   26 1  
    21   12   11 1  
    22   11   23 1  
    23   13   14 1  
    24   14   23 1  
    25   16   15 1  
    26   16   24 1  
    27   17   18 ar 
    28   17   20 1  
    29   21   22 1  
    30   24   25 1  
    31    1   28 1  
    32    3   29 1  
    33    3   30 1  
    34    5   31 1  
    35    7   32 1  
    36    8   33 1  
    37    8   34 1  
    38    8   35 1  
    39   11   36 1  
    40   11   37 1  
    41   12   38 1  
    42   12   39 1  
    43   13   40 1  
    44   13   41 1  
    45   14   42 1  
    46   14   43 1  
    47   15   44 1  
    48   15   45 1  
    49   16   46 1  
    50   18   47 1  
    51   25   48 1  
    52   25   49 1  
@<TRIPOS>SUBSTRUCTURE
     1 JSW         1

