### 
### Created by X-TOOL on Mon Aug  2 16:11:32 2021
### 

@<TRIPOS>MOLECULE
6r7d_ligand
   53    57     1     0     0
SMALL
GAST_HUCK


@<TRIPOS>ATOM
      1 C1          6.4980   59.1970   25.9550 C.ar      1 JUQ        -0.0638
      2 C2          7.5120   60.1260   25.7670 C.ar      1 JUQ        -0.0645
      3 C3          7.6850   61.1840   26.6580 C.ar      1 JUQ        -0.0593
      4 C7          5.0100   60.4760   29.0730 C.ar      1 JUQ         0.0757
      5 C8          5.2220   61.5520   29.9560 C.ar      1 JUQ        -0.0406
      6 C9          6.2230   62.5000   29.7450 C.ar      1 JUQ        -0.0765
      7 C10         7.0350   62.3940   28.6260 C.ar      1 JUQ        -0.0701
      8 C12         4.0400   58.1560   29.6550 C.ar      1 JUQ         0.1529
      9 C13         3.1660   57.1810   29.1710 C.ar      1 JUQ         0.0466
     10 C15         4.2000   55.5720   30.3840 C.ar      1 JUQ         0.1574
     11 C16         4.3440   54.1770   30.7920 C.2       1 JUQ         0.1678
     12 C19         3.2290   51.8870   31.2540 C.3       1 JUQ         0.0324
     13 C20         2.0390   51.2960   31.9790 C.2       1 JUQ         0.0405
     14 C27         6.8230   58.1590   31.9700 C.3       1 JUQ         0.0638
     15 C30         1.1260   60.9880   27.1610 C.3       1 JUQ        -0.0477
     16 C31         2.4580   60.6950   26.5570 C.3       1 JUQ        -0.0477
     17 C4          6.8590   61.3180   27.7560 C.ar      1 JUQ        -0.0278
     18 C5          5.8470   60.3630   27.9700 C.ar      1 JUQ         0.0118
     19 C6          5.6720   59.3270   27.0660 C.ar      1 JUQ        -0.0541
     20 N11         3.9650   59.5220   29.2670 N.pl3     1 JUQ        -0.2455
     21 N14         3.2220   55.8850   29.5210 N.ar      1 JUQ        -0.2748
     22 C17         3.1880   53.2330   30.5750 C.3       1 JUQ         0.0538
     23 C18         3.2980   51.9850   29.7270 C.3       1 JUQ        -0.0161
     24 O21         2.1390   50.6120   33.0090 O.co2     1 JUQ        -0.5686
     25 O22         0.8620   51.5540   31.3520 O.co2     1 JUQ        -0.5686
     26 O23         5.4140   53.8300   31.3140 O.2       1 JUQ        -0.3701
     27 N24         5.1020   56.4020   30.9370 N.ar      1 JUQ        -0.2339
     28 C25         4.9950   57.6830   30.5350 C.ar      1 JUQ         0.2147
     29 O26         5.8660   58.6270   31.0070 O.3       1 JUQ        -0.2966
     30 C28         2.6220   60.1200   29.1260 C.3       1 JUQ         0.0509
     31 C29         2.0260   59.9480   27.7850 C.3       1 JUQ        -0.0166
     32 H1          6.3530   58.3865   25.2499 H         1 JUQ         0.0587
     33 H2          8.1775   60.0276   24.9170 H         1 JUQ         0.0613
     34 H3          8.4743   61.9072   26.4874 H         1 JUQ         0.0595
     35 H4          4.5861   61.6467   30.8288 H         1 JUQ         0.0483
     36 H5          6.3649   63.3119   30.4491 H         1 JUQ         0.0577
     37 H6          7.7978   63.1388   28.4296 H         1 JUQ         0.0479
     38 H7          2.3967   57.4876   28.4715 H         1 JUQ         0.0809
     39 H8          4.1360   51.6028   31.8076 H         1 JUQ         0.0495
     40 H9          7.4690   58.9935   32.2804 H         1 JUQ         0.0585
     41 H10         7.4388   57.3665   31.5197 H         1 JUQ         0.0585
     42 H11         6.2943   57.7586   32.8476 H         1 JUQ         0.0585
     43 H12         0.2067   60.6795   26.6416 H         1 JUQ         0.0269
     44 H13         0.9535   61.9454   27.6744 H         1 JUQ         0.0269
     45 H14         3.2657   61.4387   26.6235 H         1 JUQ         0.0269
     46 H15         2.5190   60.1728   25.5908 H         1 JUQ         0.0269
     47 H16         4.8784   58.6065   27.2277 H         1 JUQ         0.0629
     48 H17         2.2526   53.8112   30.5481 H         1 JUQ         0.0545
     49 H18         2.4453   51.6576   29.1141 H         1 JUQ         0.0315
     50 H19         4.2368   51.7562   29.2013 H         1 JUQ         0.0315
     51 H20         2.6992   61.1972   29.3347 H         1 JUQ         0.0575
     52 H21         1.9549   59.6504   29.8639 H         1 JUQ         0.0575
     53 H22         1.7609   58.8859   27.6773 H         1 JUQ         0.0324
@<TRIPOS>BOND
     1    1    2 ar 
     2   19    1 ar 
     3    3    2 ar 
     4   17    3 ar 
     5    4    5 ar 
     6    4   18 ar 
     7   20    4 1  
     8    5    6 ar 
     9    6    7 ar 
    10   17    7 ar 
    11    8    9 ar 
    12   20    8 1  
    13    8   28 ar 
    14    9   21 ar 
    15   10   11 1  
    16   21   10 ar 
    17   27   10 ar 
    18   11   22 1  
    19   11   26 2  
    20   12   13 1  
    21   22   12 1  
    22   23   12 1  
    23   13   24 ar 
    24   13   25 ar 
    25   29   14 1  
    26   16   15 1  
    27   31   15 1  
    28   31   16 1  
    29   18   17 ar 
    30   18   19 ar 
    31   30   20 1  
    32   22   23 1  
    33   28   27 ar 
    34   28   29 1  
    35   30   31 1  
    36    1   32 1  
    37    2   33 1  
    38    3   34 1  
    39    5   35 1  
    40    6   36 1  
    41    7   37 1  
    42    9   38 1  
    43   12   39 1  
    44   14   40 1  
    45   14   41 1  
    46   14   42 1  
    47   15   43 1  
    48   15   44 1  
    49   16   45 1  
    50   16   46 1  
    51   19   47 1  
    52   22   48 1  
    53   23   49 1  
    54   23   50 1  
    55   30   51 1  
    56   30   52 1  
    57   31   53 1  
@<TRIPOS>SUBSTRUCTURE
     1 JUQ         1

