### 
### Created by X-TOOL on Mon Aug  2 16:11:49 2021
### 

@<TRIPOS>MOLECULE
6r7j_ligand
   55    56     1     0     0
SMALL
GAST_HUCK


@<TRIPOS>ATOM
      1 C1        -24.3850   -0.7210  -16.9500 C.3       1 JUN        -0.0454
      2 C2        -24.2650   -2.1860  -16.5690 C.3       1 JUN         0.0672
      3 O4        -26.7460   -2.9970  -17.1810 O.2       1 JUN        -0.1702
      4 O5        -25.4230   -4.1780  -15.3910 O.2       1 JUN        -0.1702
      5 C7        -27.5840   -1.1190  -15.2250 C.ar      1 JUN        -0.0432
      6 C8        -28.1630   -0.2870  -14.2920 C.ar      1 JUN        -0.0539
      7 C9        -27.6280   -0.2300  -13.0240 C.ar      1 JUN         0.0020
      8 C10       -26.5370   -1.0180  -12.6840 C.ar      1 JUN        -0.0539
      9 C11       -25.9770   -1.8840  -13.5980 C.ar      1 JUN        -0.0432
     10 C12       -28.2110    0.7550  -12.0640 C.3       1 JUN         0.1742
     11 C14       -28.4100    1.2340   -9.6540 C.2       1 JUN         0.1769
     12 C16       -28.2910    0.5740   -8.3070 C.3       1 JUN         0.0259
     13 C20       -28.2050    4.1560  -13.6400 C.ar      1 JUN         0.1101
     14 C21       -29.0540    4.6820  -14.5900 C.ar      1 JUN        -0.0045
     15 C22       -28.7630    5.9170  -15.1460 C.ar      1 JUN        -0.0489
     16 C24       -26.8090    6.1090  -13.8160 C.ar      1 JUN        -0.0489
     17 C32       -28.4700    9.0030  -15.0540 C.3       1 JUN         0.3882
     18 S3        -25.8030   -2.9700  -16.0830 S.o2      1 JUN        -0.0061
     19 C6        -26.5060   -1.8950  -14.8670 C.ar      1 JUN         0.0815
     20 N13       -27.8680    0.4860  -10.6730 N.am      1 JUN        -0.2545
     21 O15       -28.9060    2.3410   -9.7950 O.2       1 JUN        -0.3971
     22 C17       -27.6360    2.1240  -12.3880 C.2       1 JUN         0.2583
     23 O18       -26.5160    2.4870  -12.0750 O.2       1 JUN        -0.3694
     24 N19       -28.5290    2.9080  -13.0620 N.am      1 JUN        -0.2039
     25 C23       -27.6490    6.6570  -14.7650 C.ar      1 JUN        -0.0318
     26 C25       -27.0790    4.8690  -13.2650 C.ar      1 JUN        -0.0045
     27 C26       -27.3340    8.0290  -15.3340 C.3       1 JUN         0.2199
     28 O27       -26.2300    8.6150  -14.6500 O.3       1 JUN        -0.4280
     29 C28       -27.0020    8.0030  -16.8230 C.3       1 JUN         0.3882
     30 F29       -28.1190    7.7100  -17.5430 F         1 JUN        -0.1797
     31 F30       -26.0020    7.1270  -17.1570 F         1 JUN        -0.1797
     32 F31       -26.5840    9.2320  -17.2310 F         1 JUN        -0.1797
     33 F33       -28.7650    9.0420  -13.7330 F         1 JUN        -0.1797
     34 F34       -28.0890   10.2620  -15.3600 F         1 JUN        -0.1797
     35 F35       -29.6100    8.6930  -15.7460 F         1 JUN        -0.1797
     36 H1        -23.3948   -0.3329  -17.2309 H         1 JUN         0.0245
     37 H2        -24.7732   -0.1500  -16.0937 H         1 JUN         0.0245
     38 H3        -25.0739   -0.6188  -17.8015 H         1 JUN         0.0245
     39 H4        -23.5615   -2.2633  -15.7270 H         1 JUN         0.0500
     40 H5        -23.8622   -2.7321  -17.4347 H         1 JUN         0.0500
     41 H6        -27.9754   -1.1619  -16.2349 H         1 JUN         0.0619
     42 H7        -29.0269    0.3140  -14.5519 H         1 JUN         0.0562
     43 H8        -26.1198   -0.9512  -11.6857 H         1 JUN         0.0562
     44 H9        -25.1511   -2.5317  -13.3269 H         1 JUN         0.0619
     45 H10       -29.3053    0.7604  -12.1756 H         1 JUN         0.0970
     46 H11       -28.7417    1.2214   -7.5404 H         1 JUN         0.0467
     47 H12       -27.2291    0.4110   -8.0711 H         1 JUN         0.0467
     48 H13       -28.8153   -0.3928   -8.3248 H         1 JUN         0.0467
     49 H14       -29.9383    4.1361  -14.8982 H         1 JUN         0.0629
     50 H15       -29.4257    6.3200  -15.9033 H         1 JUN         0.0801
     51 H16       -25.9285    6.6562  -13.4993 H         1 JUN         0.0801
     52 H17       -27.2297   -0.2527  -10.4566 H         1 JUN         0.1908
     53 H18       -29.4689    2.5787  -13.1517 H         1 JUN         0.2488
     54 H19       -26.4005    4.4505  -12.5305 H         1 JUN         0.0629
     55 H20       -26.0484    9.4712  -15.0194 H         1 JUN         0.1906
@<TRIPOS>BOND
     1    2    1 1  
     2   18    2 1  
     3   18    3 2  
     4   18    4 2  
     5    6    5 ar 
     6    5   19 ar 
     7    7    6 ar 
     8    7    8 ar 
     9   10    7 1  
    10    8    9 ar 
    11    9   19 ar 
    12   10   20 1  
    13   22   10 1  
    14   11   12 1  
    15   20   11 am 
    16   11   21 2  
    17   14   13 ar 
    18   13   24 1  
    19   26   13 ar 
    20   15   14 ar 
    21   25   15 ar 
    22   25   16 ar 
    23   16   26 ar 
    24   27   17 1  
    25   17   33 1  
    26   17   34 1  
    27   17   35 1  
    28   19   18 1  
    29   22   23 2  
    30   24   22 am 
    31   25   27 1  
    32   27   28 1  
    33   27   29 1  
    34   29   30 1  
    35   29   31 1  
    36   29   32 1  
    37    1   36 1  
    38    1   37 1  
    39    1   38 1  
    40    2   39 1  
    41    2   40 1  
    42    5   41 1  
    43    6   42 1  
    44    8   43 1  
    45    9   44 1  
    46   10   45 1  
    47   12   46 1  
    48   12   47 1  
    49   12   48 1  
    50   14   49 1  
    51   15   50 1  
    52   16   51 1  
    53   20   52 1  
    54   24   53 1  
    55   26   54 1  
    56   28   55 1  
@<TRIPOS>SUBSTRUCTURE
     1 JUN         1

