### 
### Created by X-TOOL on Mon Aug  2 16:11:49 2021
### 

@<TRIPOS>MOLECULE
6r7k_ligand
   65    67     1     0     0
SMALL
GAST_HUCK


@<TRIPOS>ATOM
      1 C1        -24.0710   -0.9200  -16.9770 C.3       1 JUH        -0.0454
      2 C2        -23.9690   -2.3730  -16.5570 C.3       1 JUH         0.0672
      3 O4        -25.3470   -4.3610  -15.5800 O.2       1 JUH        -0.1702
      4 O5        -26.3750   -3.0400  -17.4640 O.2       1 JUH        -0.1702
      5 C7        -27.3970   -1.2280  -15.3260 C.ar      1 JUH        -0.0432
      6 C8        -27.9610   -0.4170  -14.3580 C.ar      1 JUH        -0.0539
      7 C9        -27.4190   -0.3600  -13.0890 C.ar      1 JUH         0.0021
      8 C10       -26.3000   -1.1160  -12.7920 C.ar      1 JUH        -0.0539
      9 C11       -25.7470   -1.9560  -13.7400 C.ar      1 JUH        -0.0432
     10 C12       -28.0170    0.5760  -12.0860 C.3       1 JUH         0.1743
     11 C14       -27.9570    1.0320   -9.6450 C.2       1 JUH         0.1915
     12 C16       -27.3540    0.5350   -8.3630 C.3       1 JUH         0.0706
     13 C19       -29.3570    0.5690   -5.1870 C.ar      1 JUH        -0.0681
     14 C20       -30.2130   -0.4970   -5.3940 C.ar      1 JUH        -0.0684
     15 C21       -30.1390   -1.2330   -6.5620 C.ar      1 JUH        -0.0681
     16 C22       -29.2200   -0.9030   -7.5430 C.ar      1 JUH        -0.0580
     17 N25       -28.2480    2.7410  -13.0490 N.am      1 JUH        -0.2039
     18 C27       -26.8300    4.7480  -13.2080 C.ar      1 JUH        -0.0045
     19 C30       -28.5250    5.6860  -15.1740 C.ar      1 JUH        -0.0489
     20 C31       -28.7590    4.4570  -14.5920 C.ar      1 JUH        -0.0045
     21 C32       -27.1790    7.8230  -15.3790 C.3       1 JUH         0.2199
     22 C34       -26.8450    7.7760  -16.8610 C.3       1 JUH         0.3882
     23 S3        -25.5840   -3.0740  -16.2300 S.o2      1 JUH        -0.0061
     24 C6        -26.3030   -1.9990  -15.0020 C.ar      1 JUH         0.0815
     25 N13       -27.6820    0.2030  -10.7100 N.am      1 JUH        -0.2526
     26 O15       -28.5770    2.0810   -9.7050 O.2       1 JUH        -0.3938
     27 C17       -28.3730    0.1700   -7.3400 C.ar      1 JUH        -0.0243
     28 C18       -28.4340    0.8960   -6.1630 C.ar      1 JUH        -0.0580
     29 C23       -27.4060    1.9360  -12.3320 C.2       1 JUH         0.2583
     30 O24       -26.3050    2.2690  -11.9340 O.2       1 JUH        -0.3694
     31 C26       -27.9200    3.9930  -13.6060 C.ar      1 JUH         0.1101
     32 C28       -26.6040    5.9800  -13.7960 C.ar      1 JUH        -0.0489
     33 C29       -27.4460    6.4640  -14.7800 C.ar      1 JUH        -0.0318
     34 O33       -26.0610    8.4000  -14.7150 O.3       1 JUH        -0.4280
     35 F35       -26.4130    9.0150  -17.2630 F         1 JUH        -0.1797
     36 F36       -25.8530    6.8720  -17.1220 F         1 JUH        -0.1797
     37 F37       -27.9410    7.4180  -17.5980 F         1 JUH        -0.1797
     38 C38       -28.3160    8.7870  -15.0910 C.3       1 JUH         0.3882
     39 F39       -27.9750   10.0480  -15.4620 F         1 JUH        -0.1797
     40 F40       -29.4750    8.4450  -15.7280 F         1 JUH        -0.1797
     41 F41       -28.5430    8.8570  -13.7550 F         1 JUH        -0.1797
     42 H1        -23.0636   -0.5224  -17.1693 H         1 JUH         0.0245
     43 H2        -24.5474   -0.3387  -16.1738 H         1 JUH         0.0245
     44 H3        -24.6759   -0.8446  -17.8926 H         1 JUH         0.0245
     45 H4        -23.3586   -2.4397  -15.6444 H         1 JUH         0.0500
     46 H5        -23.4870   -2.9455  -17.3632 H         1 JUH         0.0500
     47 H6        -27.8110   -1.2564  -16.3274 H         1 JUH         0.0619
     48 H7        -28.8348    0.1782  -14.5971 H         1 JUH         0.0562
     49 H8        -25.8525   -1.0492  -11.8069 H         1 JUH         0.0562
     50 H9        -24.8891   -2.5719  -13.4956 H         1 JUH         0.0619
     51 H10       -29.1096    0.6075  -12.2095 H         1 JUH         0.0970
     52 H11       -26.7105    1.3255   -7.9494 H         1 JUH         0.0659
     53 H12       -26.7459   -0.3546   -8.5841 H         1 JUH         0.0659
     54 H13       -29.4091    1.1426   -4.2687 H         1 JUH         0.0600
     55 H14       -30.9448   -0.7566   -4.6376 H         1 JUH         0.0561
     56 H15       -30.8056   -2.0748   -6.7106 H         1 JUH         0.0600
     57 H16       -29.1653   -1.4793   -8.4595 H         1 JUH         0.0561
     58 H17       -29.1812    2.4109  -13.1908 H         1 JUH         0.2488
     59 H18       -26.1589    4.3770  -12.4418 H         1 JUH         0.0629
     60 H19       -29.1920    6.0478  -15.9481 H         1 JUH         0.0801
     61 H20       -29.6037    3.8575  -14.9118 H         1 JUH         0.0629
     62 H21       -27.2413   -0.6782  -10.5389 H         1 JUH         0.1910
     63 H22       -27.7542    1.7256   -6.0056 H         1 JUH         0.0561
     64 H23       -25.7542    6.5745  -13.4805 H         1 JUH         0.0801
     65 H24       -25.8828    9.2571  -15.0838 H         1 JUH         0.1906
@<TRIPOS>BOND
     1    2    1 1  
     2   23    2 1  
     3   23    3 2  
     4   23    4 2  
     5    5    6 ar 
     6   24    5 ar 
     7    6    7 ar 
     8    8    7 ar 
     9    7   10 1  
    10    9    8 ar 
    11   24    9 ar 
    12   10   25 1  
    13   10   29 1  
    14   11   12 1  
    15   25   11 am 
    16   11   26 2  
    17   12   27 1  
    18   14   13 ar 
    19   13   28 ar 
    20   15   14 ar 
    21   16   15 ar 
    22   27   16 ar 
    23   29   17 am 
    24   17   31 1  
    25   31   18 ar 
    26   18   32 ar 
    27   20   19 ar 
    28   19   33 ar 
    29   31   20 ar 
    30   21   22 1  
    31   33   21 1  
    32   21   34 1  
    33   21   38 1  
    34   22   35 1  
    35   22   36 1  
    36   22   37 1  
    37   23   24 1  
    38   27   28 ar 
    39   29   30 2  
    40   32   33 ar 
    41   38   39 1  
    42   38   40 1  
    43   38   41 1  
    44    1   42 1  
    45    1   43 1  
    46    1   44 1  
    47    2   45 1  
    48    2   46 1  
    49    5   47 1  
    50    6   48 1  
    51    8   49 1  
    52    9   50 1  
    53   10   51 1  
    54   12   52 1  
    55   12   53 1  
    56   13   54 1  
    57   14   55 1  
    58   15   56 1  
    59   16   57 1  
    60   17   58 1  
    61   18   59 1  
    62   19   60 1  
    63   20   61 1  
    64   25   62 1  
    65   28   63 1  
    66   32   64 1  
    67   34   65 1  
@<TRIPOS>SUBSTRUCTURE
     1 JUH         1

