### 
### Created by X-TOOL on Mon Aug  2 16:11:32 2021
### 

@<TRIPOS>MOLECULE
6r7r_ligand
   15    14     1     0     0
SMALL
GAST_HUCK


@<TRIPOS>ATOM
      1 N          75.9480   24.0380  348.5790 N.4       1 DAS         0.2339
      2 CA         76.3830   22.7320  348.0790 C.3       1 DAS         0.0398
      3 C          77.0450   22.7440  346.6730 C.2       1 DAS         0.0862
      4 O          76.3920   22.2960  345.7460 O.co2     1 DAS        -0.5642
      5 CB         77.2530   22.0370  349.1270 C.3       1 DAS         0.0552
      6 CG         78.0090   23.0170  349.9710 C.2       1 DAS         0.0419
      7 OD1        79.2210   22.8060  350.2070 O.co2     1 DAS        -0.5687
      8 OD2        77.3790   24.0040  350.3990 O.co2     1 DAS        -0.5687
      9 OXT        78.1760   23.1790  346.3800 O.co2     1 DAS        -0.5642
     10 H1         75.5340   23.9276  349.4914 H         1 DAS         0.2011
     11 H2         75.2680   24.4303  347.9468 H         1 DAS         0.2011
     12 H3         76.7425   24.6550  348.6430 H         1 DAS         0.2011
     13 H4         75.4711   22.1262  347.9725 H         1 DAS         0.1043
     14 H5         77.9723   21.3823  348.6133 H         1 DAS         0.0505
     15 H6         76.6069   21.4313  349.7794 H         1 DAS         0.0505
@<TRIPOS>BOND
     1    1    2 1  
     2    2    3 1  
     3    2    5 1  
     4    3    4 ar 
     5    3    9 ar 
     6    5    6 1  
     7    6    7 ar 
     8    6    8 ar 
     9    1   10 1  
    10    1   11 1  
    11    1   12 1  
    12    2   13 1  
    13    5   14 1  
    14    5   15 1  
@<TRIPOS>SUBSTRUCTURE
     1 DAS         1

