### 
### Created by X-TOOL on Mon Aug  2 16:16:44 2021
### 

@<TRIPOS>MOLECULE
6r8l_ligand
   67    71     1     0     0
SMALL
GAST_HUCK


@<TRIPOS>ATOM
      1 C1         -1.5040   -0.6180  -25.1900 C.3       1 JUZ         0.1206
      2 C3         -3.4260    0.7670  -25.7790 C.2       1 JUZ         0.2611
      3 O4         -3.7170    0.0360  -26.6920 O.2       1 JUZ        -0.4006
      4 C9         -0.8610   -3.4700  -25.5060 C.3       1 JUZ         0.0770
      5 C10        -2.3210   -4.0620  -23.7050 C.3       1 JUZ         0.0365
      6 C11        -1.5250   -5.3010  -24.1520 C.3       1 JUZ        -0.0286
      7 C12        -1.1920   -4.9480  -25.6090 C.3       1 JUZ        -0.0189
      8 C13         0.5870   -3.3040  -25.1290 C.ar      1 JUZ        -0.0053
      9 C14         1.5890   -3.4560  -26.0730 C.ar      1 JUZ         0.0190
     10 C15         2.9270   -3.3040  -25.7330 C.ar      1 JUZ        -0.0563
     11 C16         3.2660   -3.0030  -24.4440 C.ar      1 JUZ        -0.0747
     12 C20         0.3230   -2.3700  -28.3170 C.3       1 JUZ        -0.0059
     13 C21        -6.3820    2.6080  -25.0380 C.ar      1 JUZ        -0.0408
     14 C22        -6.9030    1.6070  -24.2540 C.ar      1 JUZ        -0.0768
     15 C24        -8.2430    3.2010  -23.0900 C.ar      1 JUZ         0.0361
     16 C30        -8.1810    5.6390  -23.6440 C.3       1 JUZ         0.0900
     17 C32       -10.8320    5.2640  -22.5130 C.3       1 JUZ         0.1005
     18 C34        -5.3610    2.2650  -26.1040 C.3       1 JUZ         0.0575
     19 C35       -10.5380    5.1840  -23.9970 C.3       1 JUZ         0.0783
     20 N2         -2.3460    0.5420  -25.0260 N.am      1 JUZ        -0.2545
     21 N5         -4.1340    1.8540  -25.4590 N.am      1 JUZ        -0.2638
     22 C6         -2.1170   -1.6760  -24.3050 C.2       1 JUZ         0.2026
     23 N7         -1.7850   -2.9530  -24.4900 N.am      1 JUZ        -0.2584
     24 O8         -2.8990   -1.3890  -23.4410 O.2       1 JUZ        -0.3945
     25 C17         2.2730   -2.8530  -23.5110 C.ar      1 JUZ        -0.0754
     26 C18         0.9500   -3.0180  -23.8500 C.ar      1 JUZ        -0.0639
     27 S19         1.1630   -3.8360  -27.7170 S.3       1 JUZ        -0.1098
     28 C23        -7.8200    1.9050  -23.2830 C.ar      1 JUZ        -0.0571
     29 C25        -7.7380    4.2070  -23.8790 C.ar      1 JUZ        -0.0023
     30 C26        -6.8010    3.8970  -24.8400 C.ar      1 JUZ        -0.0655
     31 N27        -9.1960    3.4720  -22.1090 N.pl3     1 JUZ        -0.3240
     32 C28        -9.5860    4.8330  -21.7550 C.3       1 JUZ         0.0646
     33 C29        -8.4470    5.7870  -22.1430 C.3       1 JUZ         0.0058
     34 O31        -9.3920    5.9630  -24.3380 O.3       1 JUZ        -0.3638
     35 O33       -11.9320    4.4200  -22.2220 O.3       1 JUZ        -0.3873
     36 H1         -0.4748   -0.3965  -24.8712 H         1 JUZ         0.0760
     37 H2         -1.5000   -0.9472  -26.2396 H         1 JUZ         0.0760
     38 H3         -1.0401   -2.9646  -26.4664 H         1 JUZ         0.0707
     39 H4         -2.1758   -3.8783  -22.6302 H         1 JUZ         0.0524
     40 H5         -3.3927   -4.1976  -23.9123 H         1 JUZ         0.0524
     41 H6         -2.1357   -6.2138  -24.0901 H         1 JUZ         0.0287
     42 H7         -0.6121   -5.4292  -23.5518 H         1 JUZ         0.0287
     43 H8         -0.3304   -5.5264  -25.9737 H         1 JUZ         0.0309
     44 H9         -2.0549   -5.1196  -26.2693 H         1 JUZ         0.0309
     45 H10         3.6978   -3.4234  -26.4858 H         1 JUZ         0.0545
     46 H11         4.3062   -2.8844  -24.1630 H         1 JUZ         0.0542
     47 H12         0.0155   -2.5253  -29.3617 H         1 JUZ         0.0364
     48 H13         1.0038   -1.5079  -28.2595 H         1 JUZ         0.0364
     49 H14        -0.5657   -2.1774  -27.6980 H         1 JUZ         0.0364
     50 H15        -6.5875    0.5809  -24.4047 H         1 JUZ         0.0467
     51 H16        -7.3837    6.3265  -23.9628 H         1 JUZ         0.0732
     52 H17       -11.0859    6.2982  -22.2375 H         1 JUZ         0.0639
     53 H18        -5.1708    3.1481  -26.7316 H         1 JUZ         0.0654
     54 H19        -5.7419    1.4450  -26.7305 H         1 JUZ         0.0654
     55 H20       -11.4073    5.5607  -24.5560 H         1 JUZ         0.0588
     56 H21       -10.3529    4.1347  -24.2702 H         1 JUZ         0.0588
     57 H22        -2.1106    1.2070  -24.3172 H         1 JUZ         0.1874
     58 H23        -3.7886    2.4275  -24.7161 H         1 JUZ         0.1869
     59 H24         2.5344   -2.6003  -22.4898 H         1 JUZ         0.0541
     60 H25         0.1863   -2.9187  -23.0871 H         1 JUZ         0.0538
     61 H26        -8.2175    1.1125  -22.6593 H         1 JUZ         0.0477
     62 H27        -6.3866    4.6897  -25.4523 H         1 JUZ         0.0463
     63 H28        -9.6404    2.6839  -21.6168 H         1 JUZ         0.1717
     64 H29        -9.7746    4.8896  -20.6728 H         1 JUZ         0.0571
     65 H30        -8.7381    6.8236  -21.9179 H         1 JUZ         0.0332
     66 H31        -7.5389    5.5302  -21.5779 H         1 JUZ         0.0332
     67 H32       -12.1181    4.4538  -21.2910 H         1 JUZ         0.2100
@<TRIPOS>BOND
     1    1   20 1  
     2   22    1 1  
     3    2    3 2  
     4   20    2 am 
     5    2   21 am 
     6    4    7 1  
     7    4    8 1  
     8   23    4 1  
     9    5    6 1  
    10   23    5 1  
    11    6    7 1  
    12    8    9 ar 
    13    8   26 ar 
    14    9   10 ar 
    15    9   27 1  
    16   10   11 ar 
    17   11   25 ar 
    18   27   12 1  
    19   13   14 ar 
    20   18   13 1  
    21   13   30 ar 
    22   14   28 ar 
    23   28   15 ar 
    24   15   29 ar 
    25   15   31 1  
    26   29   16 1  
    27   16   33 1  
    28   16   34 1  
    29   19   17 1  
    30   17   32 1  
    31   17   35 1  
    32   21   18 1  
    33   34   19 1  
    34   22   23 am 
    35   22   24 2  
    36   25   26 ar 
    37   29   30 ar 
    38   31   32 1  
    39   32   33 1  
    40    1   36 1  
    41    1   37 1  
    42    4   38 1  
    43    5   39 1  
    44    5   40 1  
    45    6   41 1  
    46    6   42 1  
    47    7   43 1  
    48    7   44 1  
    49   10   45 1  
    50   11   46 1  
    51   12   47 1  
    52   12   48 1  
    53   12   49 1  
    54   14   50 1  
    55   16   51 1  
    56   17   52 1  
    57   18   53 1  
    58   18   54 1  
    59   19   55 1  
    60   19   56 1  
    61   20   57 1  
    62   21   58 1  
    63   25   59 1  
    64   26   60 1  
    65   28   61 1  
    66   30   62 1  
    67   31   63 1  
    68   32   64 1  
    69   33   65 1  
    70   33   66 1  
    71   35   67 1  
@<TRIPOS>SUBSTRUCTURE
     1 JUZ         1

