### 
### Created by X-TOOL on Mon Aug  2 16:16:44 2021
### 

@<TRIPOS>MOLECULE
6r8o_ligand
   67    71     1     0     0
SMALL
GAST_HUCK


@<TRIPOS>ATOM
      1 C1          0.6730   -2.6630  -27.7270 C.3       1 JV2        -0.0059
      2 C3          1.7870   -3.6270  -25.5710 C.ar      1 JV2         0.0190
      3 C4          3.1270   -3.4140  -25.1990 C.ar      1 JV2        -0.0563
      4 C5          3.4520   -3.0140  -23.9060 C.ar      1 JV2        -0.0747
      5 C6          2.4300   -2.8570  -22.9670 C.ar      1 JV2        -0.0754
      6 C7          1.1090   -3.0730  -23.3360 C.ar      1 JV2        -0.0639
      7 C8          0.7410   -3.4260  -24.6250 C.ar      1 JV2        -0.0053
      8 C11        -1.4140   -5.4910  -23.5920 C.3       1 JV2        -0.0286
      9 C12        -2.2690   -4.2590  -23.2210 C.3       1 JV2         0.0365
     10 N13        -1.6980   -3.1640  -24.0030 N.am      1 JV2        -0.2584
     11 C16        -1.3740   -0.8300  -24.7040 C.3       1 JV2         0.1206
     12 C18        -3.2200    0.6060  -25.2130 C.2       1 JV2         0.2611
     13 C21        -5.1290    2.1070  -25.5560 C.3       1 JV2         0.0575
     14 C23        -6.9920    3.5840  -24.6940 C.ar      1 JV2        -0.0655
     15 C24        -8.0370    3.8640  -23.8120 C.ar      1 JV2        -0.0023
     16 C27       -10.1200    4.5340  -21.9290 C.3       1 JV2         0.0646
     17 C30        -7.5180    1.8550  -22.5850 C.ar      1 JV2        -0.0571
     18 C31        -6.4930    1.5850  -23.4810 C.ar      1 JV2        -0.0768
     19 C32        -9.4010    5.6320  -21.1330 C.3       1 JV2         0.1005
     20 C35        -8.0850    6.0320  -21.8010 C.3       1 JV2         0.0783
     21 S2          1.4000   -4.1540  -27.2080 S.3       1 JV2        -0.1098
     22 C9         -0.7370   -3.6900  -24.9730 C.3       1 JV2         0.0770
     23 C10        -1.0070   -5.2000  -25.0340 C.3       1 JV2        -0.0189
     24 C14        -2.0530   -1.8830  -23.8270 C.2       1 JV2         0.2026
     25 O15        -2.8800   -1.6230  -22.9580 O.2       1 JV2        -0.3945
     26 N17        -2.1040    0.3910  -24.5020 N.am      1 JV2        -0.2545
     27 O19        -3.5740   -0.1700  -26.1170 O.2       1 JV2        -0.4006
     28 N20        -3.9120    1.7110  -24.8900 N.am      1 JV2        -0.2638
     29 C22        -6.2180    2.4450  -24.5400 C.ar      1 JV2        -0.0408
     30 C25        -8.8360    5.1480  -23.9820 C.3       1 JV2         0.0900
     31 C26       -10.2430    4.9460  -23.4020 C.3       1 JV2         0.0058
     32 N28        -9.3550    3.2730  -21.8560 N.pl3     1 JV2        -0.3240
     33 C29        -8.2930    3.0130  -22.7480 C.ar      1 JV2         0.0361
     34 O34       -10.2670    6.7780  -21.0420 O.3       1 JV2        -0.3873
     35 O36        -8.2580    6.2400  -23.2120 O.3       1 JV2        -0.3638
     36 H1          0.3397   -2.7614  -28.7707 H         1 JV2         0.0364
     37 H2          1.4104   -1.8501  -27.6527 H         1 JV2         0.0364
     38 H3         -0.1912   -2.4338  -27.0862 H         1 JV2         0.0364
     39 H4          3.9155   -3.5631  -25.9278 H         1 JV2         0.0545
     40 H5          4.4839   -2.8269  -23.6316 H         1 JV2         0.0542
     41 H6          2.6682   -2.5665  -21.9502 H         1 JV2         0.0541
     42 H7          0.3344   -2.9611  -22.5860 H         1 JV2         0.0538
     43 H8         -2.0042   -6.4169  -23.5263 H         1 JV2         0.0287
     44 H9         -0.5317   -5.5715  -22.9401 H         1 JV2         0.0287
     45 H10        -2.1964   -4.0461  -22.1443 H         1 JV2         0.0524
     46 H11        -3.3225   -4.4216  -23.4924 H         1 JV2         0.0524
     47 H12        -1.4168   -1.1293  -25.7616 H         1 JV2         0.0760
     48 H13        -0.3243   -0.7011  -24.4016 H         1 JV2         0.0760
     49 H14        -5.4756    1.2813  -26.1948 H         1 JV2         0.0654
     50 H15        -4.9284    2.9922  -26.1775 H         1 JV2         0.0654
     51 H16        -6.7832    4.2664  -25.5100 H         1 JV2         0.0463
     52 H17       -11.1237    4.3793  -21.5063 H         1 JV2         0.0571
     53 H18        -7.7184    1.1755  -21.7645 H         1 JV2         0.0477
     54 H19        -5.8964    0.6889  -23.3537 H         1 JV2         0.0467
     55 H20        -9.1854    5.2578  -20.1214 H         1 JV2         0.0639
     56 H21        -7.3462    5.2322  -21.6447 H         1 JV2         0.0588
     57 H22        -7.7196    6.9633  -21.3437 H         1 JV2         0.0588
     58 H23        -0.9390   -3.2364  -25.9545 H         1 JV2         0.0707
     59 H24        -1.8197   -5.4354  -25.7369 H         1 JV2         0.0309
     60 H25        -0.1033   -5.7592  -25.3178 H         1 JV2         0.0309
     61 H26        -1.7845    1.0701  -23.8411 H         1 JV2         0.1874
     62 H27        -3.5661    2.2884  -24.1504 H         1 JV2         0.1869
     63 H28        -8.8857    5.4144  -25.0481 H         1 JV2         0.0732
     64 H29       -10.8111    5.8850  -23.4764 H         1 JV2         0.0332
     65 H30       -10.7639    4.1567  -23.9638 H         1 JV2         0.0332
     66 H31        -9.6006    2.5719  -21.1425 H         1 JV2         0.1717
     67 H32       -11.0829    6.5247  -20.6265 H         1 JV2         0.2100
@<TRIPOS>BOND
     1   21    1 1  
     2    2    3 ar 
     3    7    2 ar 
     4    2   21 1  
     5    3    4 ar 
     6    5    4 ar 
     7    6    5 ar 
     8    7    6 ar 
     9   22    7 1  
    10    9    8 1  
    11   23    8 1  
    12   10    9 1  
    13   10   22 1  
    14   24   10 am 
    15   11   24 1  
    16   26   11 1  
    17   12   26 am 
    18   12   27 2  
    19   28   12 am 
    20   13   28 1  
    21   29   13 1  
    22   15   14 ar 
    23   14   29 ar 
    24   30   15 1  
    25   15   33 ar 
    26   16   19 1  
    27   31   16 1  
    28   16   32 1  
    29   17   18 ar 
    30   33   17 ar 
    31   29   18 ar 
    32   19   20 1  
    33   19   34 1  
    34   20   35 1  
    35   22   23 1  
    36   24   25 2  
    37   30   31 1  
    38   30   35 1  
    39   32   33 1  
    40    1   36 1  
    41    1   37 1  
    42    1   38 1  
    43    3   39 1  
    44    4   40 1  
    45    5   41 1  
    46    6   42 1  
    47    8   43 1  
    48    8   44 1  
    49    9   45 1  
    50    9   46 1  
    51   11   47 1  
    52   11   48 1  
    53   13   49 1  
    54   13   50 1  
    55   14   51 1  
    56   16   52 1  
    57   17   53 1  
    58   18   54 1  
    59   19   55 1  
    60   20   56 1  
    61   20   57 1  
    62   22   58 1  
    63   23   59 1  
    64   23   60 1  
    65   26   61 1  
    66   28   62 1  
    67   30   63 1  
    68   31   64 1  
    69   31   65 1  
    70   32   66 1  
    71   34   67 1  
@<TRIPOS>SUBSTRUCTURE
     1 JV2         1

