### 
### Created by X-TOOL on Mon Aug  2 16:16:44 2021
### 

@<TRIPOS>MOLECULE
6r8p_ligand
   32    33     1     0     0
SMALL
GAST_HUCK


@<TRIPOS>ATOM
      1 C10         4.2330   -4.5630    6.7740 C.2       1 JVB         0.2362
      2 N12         4.1940   -5.4980    7.9450 N.am      1 JVB        -0.2247
      3 C13         5.3630   -5.6920    8.9520 C.ar      1 JVB         0.0944
      4 C15         6.1620   -6.3540   11.1340 C.ar      1 JVB        -0.0480
      5 C01         0.9370   -7.7920    6.7990 C.3       1 JVB        -0.0330
      6 C02         0.3370   -6.7140    5.8410 C.ar      1 JVB        -0.0165
      7 C03        -0.7950   -7.0200    5.0890 C.ar      1 JVB        -0.0691
      8 C04        -1.3160   -6.0740    4.2290 C.ar      1 JVB        -0.0797
      9 C05        -0.7160   -4.8240    4.1120 C.ar      1 JVB        -0.0776
     10 C06         0.4140   -4.5030    4.8650 C.ar      1 JVB        -0.0394
     11 C07         0.9320   -5.4740    5.7260 C.ar      1 JVB         0.0957
     12 C09         3.0300   -4.4460    5.8560 C.3       1 JVB         0.1635
     13 C14         5.1050   -6.1800   10.2310 C.ar      1 JVB        -0.0216
     14 C16         7.4740   -6.0250   10.7150 C.ar      1 JVB        -0.0050
     15 C18         6.6960   -5.4000    8.6190 C.ar      1 JVB         0.0312
     16 N17         7.6820   -5.5710    9.5020 N.ar      1 JVB        -0.3128
     17 O08         2.0290   -5.1980    6.4830 O.3       1 JVB        -0.3008
     18 O11         5.1410   -3.9100    6.5580 O.2       1 JVB        -0.3810
     19 H1          3.3610   -6.0324    8.0881 H         1 JVB         0.2284
     20 H2          5.9792   -6.7328   12.1331 H         1 JVB         0.0667
     21 H3          0.3262   -8.7056    6.7513 H         1 JVB         0.0368
     22 H4          0.9399   -7.4063    7.8291 H         1 JVB         0.0368
     23 H5          1.9674   -8.0234    6.4912 H         1 JVB         0.0368
     24 H6         -1.2633   -7.9936    5.1784 H         1 JVB         0.0526
     25 H7         -2.1971   -6.3062    3.6418 H         1 JVB         0.0505
     26 H8         -1.1308   -4.0919    3.4287 H         1 JVB         0.0531
     27 H9          0.8776   -3.5265    4.7842 H         1 JVB         0.0521
     28 H10         3.2591   -4.8578    4.8621 H         1 JVB         0.0862
     29 H11         2.7199   -3.3955    5.7551 H         1 JVB         0.0862
     30 H12         4.0909   -6.4240   10.5263 H         1 JVB         0.0621
     31 H13         8.3073   -6.1484   11.3973 H         1 JVB         0.0690
     32 H14         6.9280   -5.0292    7.6272 H         1 JVB         0.0711
@<TRIPOS>BOND
     1    1    2 am 
     2   12    1 1  
     3    1   18 2  
     4    2    3 1  
     5    3   13 ar 
     6    3   15 ar 
     7   13    4 ar 
     8    4   14 ar 
     9    6    5 1  
    10    6    7 ar 
    11   11    6 ar 
    12    7    8 ar 
    13    9    8 ar 
    14   10    9 ar 
    15   11   10 ar 
    16   17   11 1  
    17   12   17 1  
    18   14   16 ar 
    19   15   16 ar 
    20    2   19 1  
    21    4   20 1  
    22    5   21 1  
    23    5   22 1  
    24    5   23 1  
    25    7   24 1  
    26    8   25 1  
    27    9   26 1  
    28   10   27 1  
    29   12   28 1  
    30   12   29 1  
    31   13   30 1  
    32   14   31 1  
    33   15   32 1  
@<TRIPOS>SUBSTRUCTURE
     1 JVB         1

