### 
### Created by X-TOOL on Mon Aug  2 16:16:44 2021
### 

@<TRIPOS>MOLECULE
6r8q_ligand
   35    37     1     0     0
SMALL
GAST_HUCK


@<TRIPOS>ATOM
      1 C4          0.7720    5.3210    4.0760 C.ar      1 JV5        -0.0776
      2 C5         -0.3840    4.7580    4.5940 C.ar      1 JV5        -0.0394
      3 C6         -1.0410    5.4050    5.6310 C.ar      1 JV5         0.0957
      4 C7         -2.9510    3.9570    5.5420 C.3       1 JV5         0.1627
      5 C8         -4.3410    3.9940    6.1260 C.2       1 JV5         0.2317
      6 C10        -5.7150    6.4880    8.4860 C.ar      1 JV5        -0.0451
      7 C13        -8.1100    5.1620    8.0920 C.ar      1 JV5         0.0610
      8 C1         -0.5730    6.6050    6.1640 C.ar      1 JV5        -0.0165
      9 C2          0.6040    7.1280    5.6400 C.ar      1 JV5        -0.0691
     10 C3          1.2660    6.4970    4.6000 C.ar      1 JV5        -0.0797
     11 C9         -5.7690    5.3860    7.6310 C.ar      1 JV5         0.0569
     12 C12        -8.0550    6.2590    8.9410 C.ar      1 JV5         0.0992
     13 N          -4.5660    5.0100    6.9880 N.am      1 JV5        -0.2373
     14 C          -1.3550    7.3460    7.2170 C.3       1 JV5        -0.0330
     15 O          -2.1860    4.9460    6.2240 O.3       1 JV5        -0.3009
     16 C11        -6.8520    6.9320    9.1400 C.ar      1 JV5        -0.0402
     17 C14        -6.9730    4.7140    7.4260 C.ar      1 JV5        -0.0332
     18 N1         -9.3170    6.4740    9.4620 N.pl3     1 JV5        -0.1811
     19 N2        -10.1140    5.5590    8.9670 N.2       1 JV5        -0.0818
     20 N3         -9.4070    4.7620    8.1420 N.2       1 JV5        -0.2067
     21 O1         -5.1650    3.1400    5.8080 O.2       1 JV5        -0.3832
     22 H1          1.2892    4.8353    3.2565 H         1 JV5         0.0531
     23 H2         -0.7689    3.8265    4.1950 H         1 JV5         0.0521
     24 H3         -2.9872    4.1831    4.4661 H         1 JV5         0.0861
     25 H4         -2.5041    2.9633    5.6931 H         1 JV5         0.0861
     26 H5         -4.7729    7.0018    8.6397 H         1 JV5         0.0502
     27 H6          1.0101    8.0446    6.0523 H         1 JV5         0.0526
     28 H7          2.1749    6.9287    4.1968 H         1 JV5         0.0505
     29 H8         -3.7698    5.5761    7.2017 H         1 JV5         0.2225
     30 H9         -2.2456    6.7616    7.4913 H         1 JV5         0.0368
     31 H10        -1.6659    8.3245    6.8222 H         1 JV5         0.0368
     32 H11        -0.7246    7.4929    8.1064 H         1 JV5         0.0368
     33 H12        -6.8063    7.7921    9.7982 H         1 JV5         0.0544
     34 H13        -7.0227    3.8594    6.7610 H         1 JV5         0.0442
     35 H14        -9.5833    7.2195   10.1210 H         1 JV5         0.2557
@<TRIPOS>BOND
     1    2    1 ar 
     2    1   10 ar 
     3    3    2 ar 
     4    3    8 ar 
     5   15    3 1  
     6    5    4 1  
     7    4   15 1  
     8   13    5 am 
     9    5   21 2  
    10   11    6 ar 
    11    6   16 ar 
    12    7   12 ar 
    13   17    7 ar 
    14    7   20 1  
    15    8    9 ar 
    16    8   14 1  
    17    9   10 ar 
    18   11   13 1  
    19   11   17 ar 
    20   12   16 ar 
    21   12   18 1  
    22   18   19 1  
    23   19   20 2  
    24    1   22 1  
    25    2   23 1  
    26    4   24 1  
    27    4   25 1  
    28    6   26 1  
    29    9   27 1  
    30   10   28 1  
    31   13   29 1  
    32   14   30 1  
    33   14   31 1  
    34   14   32 1  
    35   16   33 1  
    36   17   34 1  
    37   18   35 1  
@<TRIPOS>SUBSTRUCTURE
     1 JV5         1

