### 
### Created by X-TOOL on Mon Aug  2 16:16:44 2021
### 

@<TRIPOS>MOLECULE
6r8r_ligand
   38    40     1     0     0
SMALL
GAST_HUCK


@<TRIPOS>ATOM
      1 C1         -0.7290    5.4030    5.3640 C.ar      1 JV8        -0.0165
      2 C4         -1.0670    7.9860    6.3510 C.ar      1 JV8        -0.0776
      3 C5         -2.1150    7.0870    6.4310 C.ar      1 JV8        -0.0394
      4 C6         -1.9200    5.7880    5.9630 C.ar      1 JV8         0.0957
      5 C7         -4.1930    5.0930    6.5250 C.3       1 JV8         0.1637
      6 C10        -7.6640    5.2810    9.7660 C.ar      1 JV8        -0.0275
      7 C11        -8.3430    5.5560   10.9170 C.ar      1 JV8        -0.0499
      8 C13        -8.3350    6.5760   13.2040 C.ar      1 JV8         0.0119
      9 C14        -6.4240    7.4870   14.0640 C.ar      1 JV8         0.0002
     10 C15        -5.6890    7.1760   12.9580 C.ar      1 JV8        -0.0402
     11 C16        -6.3200    6.5170   11.8730 C.ar      1 JV8        -0.0192
     12 C17        -5.6460    6.2120   10.6640 C.ar      1 JV8        -0.0312
     13 N          -5.7410    5.3430    8.3550 N.am      1 JV8        -0.2279
     14 C          -0.5810    4.0580    4.7070 C.3       1 JV8        -0.0330
     15 O          -2.8070    4.7760    6.1360 O.3       1 JV8        -0.3008
     16 C12        -7.6930    6.1930   11.9990 C.ar      1 JV8        -0.0011
     17 C2          0.3090    6.3310    5.3230 C.ar      1 JV8        -0.0691
     18 C3          0.1470    7.5980    5.8230 C.ar      1 JV8        -0.0797
     19 C8         -4.4410    5.3690    7.9860 C.2       1 JV8         0.2365
     20 C9         -6.3180    5.6130    9.6180 C.ar      1 JV8         0.0739
     21 N1         -7.7300    7.2040   14.2060 N.ar      1 JV8        -0.3055
     22 O1         -3.4980    5.5920    8.7490 O.2       1 JV8        -0.3807
     23 H1         -1.2004    9.0017    6.7054 H         1 JV8         0.0531
     24 H2         -3.0692    7.3863    6.8493 H         1 JV8         0.0521
     25 H3         -4.8237    4.2395    6.2356 H         1 JV8         0.0862
     26 H4         -4.5017    5.9852    5.9605 H         1 JV8         0.0862
     27 H5         -8.1826    4.7935    8.9484 H         1 JV8         0.0598
     28 H6         -9.3888    5.2840   11.0026 H         1 JV8         0.0648
     29 H7         -9.3875    6.3411   13.3146 H         1 JV8         0.0852
     30 H8         -5.9229    7.9947   14.8803 H         1 JV8         0.0756
     31 H9         -4.6362    7.4294   12.9093 H         1 JV8         0.0666
     32 H10        -4.5938    6.4513   10.5601 H         1 JV8         0.0458
     33 H11        -6.3870    5.0980    7.6321 H         1 JV8         0.2287
     34 H12         0.4357    3.9592    4.2989 H         1 JV8         0.0368
     35 H13        -1.3138    3.9654    3.8919 H         1 JV8         0.0368
     36 H14        -0.7565    3.2658    5.4497 H         1 JV8         0.0368
     37 H15         1.2608    6.0471    4.8887 H         1 JV8         0.0526
     38 H16         0.9756    8.2967    5.8032 H         1 JV8         0.0505
@<TRIPOS>BOND
     1    4    1 ar 
     2    1   14 1  
     3    1   17 ar 
     4    3    2 ar 
     5    2   18 ar 
     6    4    3 ar 
     7   15    4 1  
     8    5   15 1  
     9   19    5 1  
    10    6    7 ar 
    11   20    6 ar 
    12    7   16 ar 
    13   16    8 ar 
    14    8   21 ar 
    15   10    9 ar 
    16    9   21 ar 
    17   11   10 ar 
    18   12   11 ar 
    19   11   16 ar 
    20   20   12 ar 
    21   13   19 am 
    22   13   20 1  
    23   17   18 ar 
    24   19   22 2  
    25    2   23 1  
    26    3   24 1  
    27    5   25 1  
    28    5   26 1  
    29    6   27 1  
    30    7   28 1  
    31    8   29 1  
    32    9   30 1  
    33   10   31 1  
    34   12   32 1  
    35   13   33 1  
    36   14   34 1  
    37   14   35 1  
    38   14   36 1  
    39   17   37 1  
    40   18   38 1  
@<TRIPOS>SUBSTRUCTURE
     1 JV8         1

