### 
### Created by X-TOOL on Mon Aug  2 16:11:32 2021
### 

@<TRIPOS>MOLECULE
6r8w_ligand
   58    63     1     0     0
SMALL
GAST_HUCK


@<TRIPOS>ATOM
      1 C2         -0.6310   -1.3510  -25.8250 C.2       1 JVH         0.2150
      2 C4         -2.0310    0.5500  -25.4320 C.3       1 JVH         0.1471
      3 C5         -3.4050    0.7470  -25.9610 C.2       1 JVH         0.2052
      4 C8         -5.2950    2.3060  -26.0740 C.3       1 JVH         0.0572
      5 C11        -8.1000    4.1440  -24.3620 C.ar      1 JVH        -0.0023
      6 C12        -8.3650    3.2800  -23.2820 C.ar      1 JVH         0.0361
      7 N13        -9.4160    3.5420  -22.3670 N.pl3     1 JVH        -0.3240
      8 C16       -10.2970    5.2300  -23.9390 C.3       1 JVH         0.0058
      9 C17        -8.8710    5.4400  -24.5220 C.3       1 JVH         0.0900
     10 C21        -9.4390    5.9160  -21.6820 C.3       1 JVH         0.1005
     11 C24        -7.6510    2.0930  -23.1610 C.ar      1 JVH        -0.0571
     12 C30        -0.3390   -2.7080  -25.2470 C.3       1 JVH         0.0772
     13 C32        -0.8630   -3.8590  -26.1460 C.3       1 JVH        -0.0180
     14 C34        -2.3400   -3.9420  -25.6530 C.3       1 JVH        -0.0423
     15 C35        -2.0560   -4.0770  -24.1390 C.3       1 JVH        -0.0180
     16 C37        -1.0710   -5.2960  -24.1240 C.3       1 JVH        -0.0473
     17 C38        -0.2500   -5.1350  -25.4850 C.3       1 JVH        -0.0473
     18 O1         -0.1730   -0.8360  -26.8070 O.2       1 JVH        -0.3854
     19 N3         -1.5730   -0.7740  -25.1020 N.am      1 JVH        -0.1655
     20 O6         -3.8910   -0.0660  -26.7430 O.2       1 JVH        -0.3943
     21 N7         -3.9940    1.8980  -25.5910 N.am      1 JVH        -0.2757
     22 C9         -6.3550    2.6800  -25.0780 C.ar      1 JVH        -0.0405
     23 C10        -7.0790    3.8480  -25.2380 C.ar      1 JVH        -0.0654
     24 C14       -10.1630    4.8170  -22.4600 C.3       1 JVH         0.0646
     25 O19        -8.2370    6.4990  -23.7390 O.3       1 JVH        -0.3638
     26 C20        -8.0860    6.2970  -22.3210 C.3       1 JVH         0.0783
     27 O23       -10.2880    7.0610  -21.6440 O.3       1 JVH        -0.3873
     28 C25        -6.6260    1.8070  -24.0390 C.ar      1 JVH        -0.0768
     29 C26        -1.9630   -1.4860  -24.0520 C.2       1 JVH         0.2150
     30 O27        -2.8000   -1.1110  -23.2780 O.2       1 JVH        -0.3854
     31 C28        -1.2080   -2.8020  -23.9370 C.3       1 JVH         0.0772
     32 H1         -1.9542    1.1512  -24.5140 H         1 JVH         0.0821
     33 H2         -1.3386    0.9466  -26.1891 H         1 JVH         0.0821
     34 H3         -5.6933    1.4728  -26.6715 H         1 JVH         0.0657
     35 H4         -5.1388    3.1806  -26.7226 H         1 JVH         0.0657
     36 H5         -9.6580    2.8505  -21.6430 H         1 JVH         0.1717
     37 H6        -10.8147    4.4381  -24.5002 H         1 JVH         0.0332
     38 H7        -10.8699    6.1661  -24.0126 H         1 JVH         0.0332
     39 H8         -8.9207    5.7246  -25.5834 H         1 JVH         0.0732
     40 H9         -9.2546    5.5630  -20.6566 H         1 JVH         0.0639
     41 H10        -7.9005    1.3902  -22.3744 H         1 JVH         0.0477
     42 H11         0.7363   -2.8238  -25.0461 H         1 JVH         0.0574
     43 H12        -0.7046   -3.7474  -27.2288 H         1 JVH         0.0330
     44 H13        -2.8655   -4.8194  -26.0579 H         1 JVH         0.0274
     45 H14        -2.9099   -3.0316  -25.8901 H         1 JVH         0.0274
     46 H15        -2.9289   -4.1748  -23.4769 H         1 JVH         0.0330
     47 H16        -1.6237   -6.2470  -24.1093 H         1 JVH         0.0270
     48 H17        -0.4005   -5.2481  -23.2533 H         1 JVH         0.0270
     49 H18         0.8216   -4.9935  -25.2810 H         1 JVH         0.0270
     50 H19        -0.3873   -6.0146  -26.1310 H         1 JVH         0.0270
     51 H20        -3.5111    2.4985  -24.9536 H         1 JVH         0.1875
     52 H21        -6.8438    4.5274  -26.0493 H         1 JVH         0.0463
     53 H22       -11.1665    4.6768  -22.0319 H         1 JVH         0.0571
     54 H23        -7.3621    5.4875  -22.1458 H         1 JVH         0.0588
     55 H24        -7.7167    7.2252  -21.8605 H         1 JVH         0.0588
     56 H25       -11.1196    6.8243  -21.2506 H         1 JVH         0.2100
     57 H26        -6.0373    0.9052  -23.9159 H         1 JVH         0.0467
     58 H27        -0.6238   -2.8604  -23.0068 H         1 JVH         0.0574
@<TRIPOS>BOND
     1    1   12 1  
     2    1   18 2  
     3   19    1 am 
     4    3    2 1  
     5    2   19 1  
     6    3   20 2  
     7   21    3 am 
     8    4   21 1  
     9   22    4 1  
    10    5    6 ar 
    11    5    9 1  
    12   23    5 ar 
    13    6    7 1  
    14    6   11 ar 
    15    7   24 1  
    16    9    8 1  
    17    8   24 1  
    18    9   25 1  
    19   24   10 1  
    20   10   26 1  
    21   10   27 1  
    22   11   28 ar 
    23   12   13 1  
    24   12   31 1  
    25   13   14 1  
    26   13   17 1  
    27   15   14 1  
    28   15   16 1  
    29   31   15 1  
    30   17   16 1  
    31   19   29 am 
    32   22   23 ar 
    33   22   28 ar 
    34   25   26 1  
    35   29   30 2  
    36   29   31 1  
    37    2   32 1  
    38    2   33 1  
    39    4   34 1  
    40    4   35 1  
    41    7   36 1  
    42    8   37 1  
    43    8   38 1  
    44    9   39 1  
    45   10   40 1  
    46   11   41 1  
    47   12   42 1  
    48   13   43 1  
    49   14   44 1  
    50   14   45 1  
    51   15   46 1  
    52   16   47 1  
    53   16   48 1  
    54   17   49 1  
    55   17   50 1  
    56   21   51 1  
    57   23   52 1  
    58   24   53 1  
    59   26   54 1  
    60   26   55 1  
    61   27   56 1  
    62   28   57 1  
    63   31   58 1  
@<TRIPOS>SUBSTRUCTURE
     1 JVH         1

