### 
### Created by X-TOOL on Mon Aug  2 16:17:13 2021
### 

@<TRIPOS>MOLECULE
6r9s_ligand
   27    29     1     0     0
SMALL
GAST_HUCK


@<TRIPOS>ATOM
      1 C1          1.4290   16.3510   20.1930 C.ar      1 JVN         0.1115
      2 C2          2.3420   16.5610   21.2230 C.ar      1 JVN        -0.0471
      3 C3          2.1180   15.9990   22.4760 C.ar      1 JVN        -0.0523
      4 C8         -1.1660   14.1180   21.8590 C.3       1 JVN         0.0906
      5 C10        -0.9120   13.1080   23.0060 C.3       1 JVN         0.0060
      6 C13        -2.1130   15.7370   23.5560 C.3       1 JVN         0.0783
      7 C14        -1.6190   14.8550   24.7260 C.3       1 JVN         0.1006
      8 C15        -0.4840   13.8970   24.2820 C.3       1 JVN         0.0651
      9 O17        -2.7200   14.0920   25.2290 O.3       1 JVN        -0.3873
     10 C4          1.0000   15.1910   22.6860 C.ar      1 JVN         0.0391
     11 C5          0.1010   14.9520   21.6290 C.ar      1 JVN         0.0024
     12 C6          0.3180   15.5400   20.3870 C.ar      1 JVN        -0.0357
     13 F7          1.6450   16.9080   18.9840 F         1 JVN        -0.1964
     14 N9          0.7670   14.6410   23.9760 N.pl3     1 JVN        -0.3224
     15 O12        -2.2460   14.9880   22.3090 O.3       1 JVN        -0.3637
     16 H1          3.2271   17.1621   21.0488 H         1 JVN         0.0513
     17 H2          2.8110   16.1886   23.2877 H         1 JVN         0.0485
     18 H3         -1.4480   13.5944   20.9336 H         1 JVN         0.0733
     19 H4         -0.1115   12.4118   22.7156 H         1 JVN         0.0332
     20 H5         -1.8328   12.5427   23.2120 H         1 JVN         0.0332
     21 H6         -1.3930   16.5542   23.4017 H         1 JVN         0.0588
     22 H7         -3.0941   16.1579   23.8211 H         1 JVN         0.0588
     23 H8         -1.2363   15.5077   25.5244 H         1 JVN         0.0639
     24 H9         -0.2863   13.1859   25.0976 H         1 JVN         0.0572
     25 H10        -2.4324   13.5756   25.9727 H         1 JVN         0.2100
     26 H11        -0.3772   15.3660   19.5737 H         1 JVN         0.0508
     27 H12         1.4775   14.7599   24.7122 H         1 JVN         0.1726
@<TRIPOS>BOND
     1    2    1 ar 
     2    1   12 ar 
     3    1   13 1  
     4    3    2 ar 
     5   10    3 ar 
     6    4    5 1  
     7   11    4 1  
     8    4   15 1  
     9    5    8 1  
    10    6    7 1  
    11   15    6 1  
    12    8    7 1  
    13    7    9 1  
    14    8   14 1  
    15   10   11 ar 
    16   10   14 1  
    17   11   12 ar 
    18    2   16 1  
    19    3   17 1  
    20    4   18 1  
    21    5   19 1  
    22    5   20 1  
    23    6   21 1  
    24    6   22 1  
    25    7   23 1  
    26    8   24 1  
    27    9   25 1  
    28   12   26 1  
    29   14   27 1  
@<TRIPOS>SUBSTRUCTURE
     1 JVN         1

