### 
### Created by X-TOOL on Mon Aug  2 16:16:44 2021
### 

@<TRIPOS>MOLECULE
6r9u_ligand
   34    36     1     0     0
SMALL
GAST_HUCK


@<TRIPOS>ATOM
      1 C1         -7.0830    7.0220  -22.5460 C.3       1 JVQ        -0.0445
      2 C2         -8.1400    7.5650  -23.5200 C.3       1 JVQ         0.0327
      3 C4         -9.6630    5.7080  -24.2900 C.3       1 JVQ         0.0570
      4 C5         -8.8060    4.5200  -23.9210 C.ar      1 JVQ        -0.0216
      5 C6         -7.9070    4.0280  -24.8710 C.ar      1 JVQ        -0.0484
      6 C7         -7.0770    2.9620  -24.5730 C.ar      1 JVQ         0.1033
      7 C11        -7.1330    2.3850  -23.3100 C.ar      1 JVQ         0.1051
      8 C12        -8.0090    2.8740  -22.3570 C.ar      1 JVQ        -0.0299
      9 C15       -11.1070    4.7520  -21.7860 C.3       1 JVQ         0.0372
     10 C16       -11.3950    6.2580  -21.9350 C.3       1 JVQ         0.0564
     11 C17       -10.1830    7.0830  -22.2790 C.2       1 JVQ         0.1817
     12 N3         -9.4060    6.8280  -23.3620 N.am      1 JVQ        -0.2660
     13 O8         -6.1380    2.3220  -25.3210 O.3       1 JVQ        -0.3016
     14 C9         -5.7260    1.1600  -24.5730 C.3       1 JVQ         0.1826
     15 O10        -6.2340    1.3640  -23.2460 O.3       1 JVQ        -0.2989
     16 C13        -8.8530    3.9400  -22.6490 C.ar      1 JVQ         0.0224
     17 N14        -9.6930    4.4260  -21.6210 N.pl3     1 JVQ        -0.3316
     18 O18        -9.8990    8.0200  -21.5450 O.2       1 JVQ        -0.3967
     19 H1         -6.1443    7.5807  -22.6749 H         1 JVQ         0.0249
     20 H2         -6.9067    5.9562  -22.7531 H         1 JVQ         0.0249
     21 H3         -7.4412    7.1404  -21.5127 H         1 JVQ         0.0249
     22 H4         -7.7776    7.4470  -24.5518 H         1 JVQ         0.0521
     23 H5         -8.3122    8.6312  -23.3115 H         1 JVQ         0.0521
     24 H6        -10.7239    5.4234  -24.2314 H         1 JVQ         0.0636
     25 H7         -9.4242    6.0240  -25.3162 H         1 JVQ         0.0636
     26 H8         -7.8594    4.4866  -25.8521 H         1 JVQ         0.0421
     27 H9         -8.0377    2.4214  -21.3724 H         1 JVQ         0.0392
     28 H10       -11.4763    4.2395  -22.6865 H         1 JVQ         0.0530
     29 H11       -11.6513    4.3823  -20.9045 H         1 JVQ         0.0530
     30 H12       -11.8059    6.6272  -20.9838 H         1 JVQ         0.0521
     31 H13       -12.1409    6.3902  -22.7326 H         1 JVQ         0.0521
     32 H14        -4.6290    1.0807  -24.5576 H         1 JVQ         0.0966
     33 H15        -6.1535    0.2470  -25.0130 H         1 JVQ         0.0966
     34 H16        -9.2776    4.5599  -20.6880 H         1 JVQ         0.1702
@<TRIPOS>BOND
     1    2    1 1  
     2   12    2 1  
     3    3    4 1  
     4   12    3 1  
     5    4    5 ar 
     6    4   16 ar 
     7    5    6 ar 
     8    6    7 ar 
     9    6   13 1  
    10    8    7 ar 
    11    7   15 1  
    12   16    8 ar 
    13   10    9 1  
    14    9   17 1  
    15   11   10 1  
    16   11   12 am 
    17   11   18 2  
    18   13   14 1  
    19   14   15 1  
    20   16   17 1  
    21    1   19 1  
    22    1   20 1  
    23    1   21 1  
    24    2   22 1  
    25    2   23 1  
    26    3   24 1  
    27    3   25 1  
    28    5   26 1  
    29    8   27 1  
    30    9   28 1  
    31    9   29 1  
    32   10   30 1  
    33   10   31 1  
    34   14   32 1  
    35   14   33 1  
    36   17   34 1  
@<TRIPOS>SUBSTRUCTURE
     1 JVQ         1

