### 
### Created by X-TOOL on Mon Aug  2 16:16:44 2021
### 

@<TRIPOS>MOLECULE
6r9x_ligand
   35    36     1     0     0
SMALL
GAST_HUCK


@<TRIPOS>ATOM
      1 C2          4.9960   19.9120   18.8110 C.2       1 JW2         0.2850
      2 C4          7.2620   20.8210   18.9990 C.3       1 JW2         0.0429
      3 C5          8.5790   20.5230   18.2740 C.3       1 JW2        -0.0297
      4 C6          9.0270   21.8680   17.6800 C.3       1 JW2        -0.0509
      5 C7          7.7470   22.7200   17.5560 C.3       1 JW2        -0.0509
      6 C8          6.9960   22.3320   18.8400 C.3       1 JW2        -0.0297
      7 C12         1.6830   18.2960   17.9140 C.3       1 JW2         0.0807
      8 C15         1.3540   15.8870   20.8290 C.ar      1 JW2        -0.0488
      9 C16         0.0580   15.4190   20.5960 C.ar      1 JW2        -0.0410
     10 C17        -0.6480   15.9030   19.4940 C.ar      1 JW2         0.0028
     11 O1          4.6910   20.4260   19.8750 O.2       1 JW2        -0.3584
     12 N3          6.2360   20.0440   18.3050 N.am      1 JW2        -0.2721
     13 C9          4.0010   19.1140   18.0430 C.2       1 JW2         0.2866
     14 O10         4.3080   18.5440   16.9990 O.2       1 JW2        -0.3582
     15 N11         2.7590   19.0550   18.5540 N.am      1 JW2        -0.2614
     16 C13         1.1280   17.2800   18.8810 C.ar      1 JW2         0.0504
     17 C14         1.9040   16.8260   19.9550 C.ar      1 JW2        -0.0304
     18 N18        -0.1080   16.8150   18.6940 N.ar      1 JW2        -0.2960
     19 H1          7.3120   20.5440   20.0624 H         1 JW2         0.0558
     20 H2          8.4208   19.7828   17.4759 H         1 JW2         0.0288
     21 H3          9.3314   20.1443   18.9815 H         1 JW2         0.0288
     22 H4          9.4837   21.7168   16.6908 H         1 JW2         0.0266
     23 H5          9.7509   22.3592   18.3469 H         1 JW2         0.0266
     24 H6          7.1716   22.4526   16.6575 H         1 JW2         0.0266
     25 H7          7.9799   23.7949   17.5359 H         1 JW2         0.0266
     26 H8          7.3882   22.8892   19.7036 H         1 JW2         0.0288
     27 H9          5.9188   22.5286   18.7352 H         1 JW2         0.0288
     28 H10         2.0787   17.7782   17.0278 H         1 JW2         0.0715
     29 H11         0.8817   18.9851   17.6088 H         1 JW2         0.0715
     30 H12         1.9244   15.5257   21.6770 H         1 JW2         0.0719
     31 H13        -0.3920   14.6910   21.2613 H         1 JW2         0.0652
     32 H14        -1.6455   15.5314   19.2893 H         1 JW2         0.0803
     33 H15         6.4603   19.6017   17.4366 H         1 JW2         0.1868
     34 H16         2.5629   19.5474   19.4020 H         1 JW2         0.1896
     35 H17         2.9117   17.1965   20.1044 H         1 JW2         0.0652
@<TRIPOS>BOND
     1    1   11 2  
     2    1   12 am 
     3   13    1 1  
     4    2    3 1  
     5    2    6 1  
     6   12    2 1  
     7    3    4 1  
     8    5    4 1  
     9    6    5 1  
    10    7   15 1  
    11   16    7 1  
    12    8    9 ar 
    13   17    8 ar 
    14    9   10 ar 
    15   10   18 ar 
    16   13   14 2  
    17   15   13 am 
    18   16   17 ar 
    19   16   18 ar 
    20    2   19 1  
    21    3   20 1  
    22    3   21 1  
    23    4   22 1  
    24    4   23 1  
    25    5   24 1  
    26    5   25 1  
    27    6   26 1  
    28    6   27 1  
    29    7   28 1  
    30    7   29 1  
    31    8   30 1  
    32    9   31 1  
    33   10   32 1  
    34   12   33 1  
    35   15   34 1  
    36   17   35 1  
@<TRIPOS>SUBSTRUCTURE
     1 JW2         1

