### 
### Created by X-TOOL on Mon Aug  2 16:12:07 2021
### 

@<TRIPOS>MOLECULE
6ra1_ligand
   34    36     1     0     0
SMALL
GAST_HUCK


@<TRIPOS>ATOM
      1 C1         -7.0150    7.2570  -22.9670 C.3       1 JVQ        -0.0445
      2 C2         -8.1650    7.6310  -23.9190 C.3       1 JVQ         0.0327
      3 C4         -9.6450    5.7170  -24.6280 C.3       1 JVQ         0.0570
      4 C5         -8.8280    4.5110  -24.2260 C.ar      1 JVQ        -0.0216
      5 C6         -7.9390    4.0310  -25.1810 C.ar      1 JVQ        -0.0484
      6 C7         -7.1100    2.9510  -24.8920 C.ar      1 JVQ         0.1033
      7 C11        -7.1650    2.3340  -23.6390 C.ar      1 JVQ         0.1051
      8 C12        -8.0550    2.8090  -22.6680 C.ar      1 JVQ        -0.0299
      9 C15       -11.1280    4.6930  -22.0100 C.3       1 JVQ         0.0372
     10 C16       -11.4160    6.1680  -22.3360 C.3       1 JVQ         0.0564
     11 C17       -10.1830    7.0200  -22.5900 C.2       1 JVQ         0.1817
     12 N3         -9.3700    6.8030  -23.6730 N.am      1 JVQ        -0.2660
     13 O8         -6.2150    2.2980  -25.6720 O.3       1 JVQ        -0.3016
     14 C9         -5.5110    1.3620  -24.8310 C.3       1 JVQ         0.1826
     15 O10        -6.2930    1.2780  -23.6300 O.3       1 JVQ        -0.2989
     16 C13        -8.8830    3.9060  -22.9450 C.ar      1 JVQ         0.0224
     17 N14        -9.6970    4.3800  -21.8880 N.pl3     1 JVQ        -0.3316
     18 O18        -9.9270    7.9100  -21.7810 O.2       1 JVQ        -0.3967
     19 H1         -6.1418    7.8911  -23.1800 H         1 JVQ         0.0249
     20 H2         -6.7457    6.2007  -23.1144 H         1 JVQ         0.0249
     21 H3         -7.3355    7.4119  -21.9262 H         1 JVQ         0.0249
     22 H4         -7.8331    7.4784  -24.9566 H         1 JVQ         0.0521
     23 H5         -8.4228    8.6897  -23.7684 H         1 JVQ         0.0521
     24 H6        -10.7155    5.4649  -24.6058 H         1 JVQ         0.0636
     25 H7         -9.3640    6.0347  -25.6429 H         1 JVQ         0.0636
     26 H8         -7.8912    4.5008  -26.1568 H         1 JVQ         0.0421
     27 H9         -8.1040    2.3267  -21.6984 H         1 JVQ         0.0392
     28 H10       -11.5515    4.0715  -22.8127 H         1 JVQ         0.0530
     29 H11       -11.6192    4.4462  -21.0572 H         1 JVQ         0.0530
     30 H12       -11.9642    6.6046  -21.4882 H         1 JVQ         0.0521
     31 H13       -12.0463    6.2021  -23.2369 H         1 JVQ         0.0521
     32 H14        -4.4984    1.7291  -24.6077 H         1 JVQ         0.0966
     33 H15        -5.4452    0.3782  -25.3187 H         1 JVQ         0.0966
     34 H16        -9.2548    4.5152  -20.9676 H         1 JVQ         0.1702
@<TRIPOS>BOND
     1    2    1 1  
     2   12    2 1  
     3    3    4 1  
     4   12    3 1  
     5    4    5 ar 
     6    4   16 ar 
     7    5    6 ar 
     8    6    7 ar 
     9    6   13 1  
    10    8    7 ar 
    11    7   15 1  
    12   16    8 ar 
    13   10    9 1  
    14    9   17 1  
    15   11   10 1  
    16   11   12 am 
    17   11   18 2  
    18   13   14 1  
    19   14   15 1  
    20   16   17 1  
    21    1   19 1  
    22    1   20 1  
    23    1   21 1  
    24    2   22 1  
    25    2   23 1  
    26    3   24 1  
    27    3   25 1  
    28    5   26 1  
    29    8   27 1  
    30    9   28 1  
    31    9   29 1  
    32   10   30 1  
    33   10   31 1  
    34   14   32 1  
    35   14   33 1  
    36   17   34 1  
@<TRIPOS>SUBSTRUCTURE
     1 JVQ         1

