### 
### Created by X-TOOL on Mon Aug  2 16:16:44 2021
### 

@<TRIPOS>MOLECULE
6rfi_ligand
   56    59     1     0     0
SMALL
GAST_HUCK


@<TRIPOS>ATOM
      1 C1        -14.2640  -16.6810  -15.4360 C.3       1 K1H         0.0663
      2 C3        -15.5820  -17.6500  -13.7280 C.2       1 K1H         0.3221
      3 O4        -14.8590  -17.1860  -12.8780 O.2       1 K1H        -0.3774
      4 C7        -18.4610  -18.5010  -11.8190 C.3       1 K1H        -0.0107
      5 C9        -18.9800  -18.8320  -14.1720 C.3       1 K1H        -0.0107
      6 C10       -17.5120  -19.0680  -14.4700 C.3       1 K1H         0.0759
      7 C11       -20.7320  -19.2520  -12.4670 C.3       1 K1H        -0.0206
      8 C12       -21.3020  -17.8700  -12.1040 C.3       1 K1H        -0.0074
      9 C13       -22.7820  -17.9690  -11.7370 C.3       1 K1H        -0.0236
     10 C14       -22.9900  -18.9740  -10.6180 C.3       1 K1H         0.0452
     11 C15       -22.4910  -20.3470  -11.0310 C.3       1 K1H        -0.0236
     12 C16       -21.0140  -20.3120  -11.4000 C.3       1 K1H        -0.0074
     13 C20       -24.3160  -19.5020   -6.7430 C.ar      1 K1H         0.0636
     14 C22       -26.5200  -19.5780   -7.3290 C.ar      1 K1H         0.0506
     15 C24       -27.2220  -19.2120   -9.6450 C.ar      1 K1H        -0.0030
     16 C27       -27.8750  -19.8210   -6.9990 C.ar      1 K1H        -0.0333
     17 N29       -30.3400  -19.4840  -11.1240 N.1       1 K1H        -0.3307
     18 O2        -15.3830  -17.5160  -15.0500 O.3       1 K1H        -0.2671
     19 N5        -16.6710  -18.4030  -13.4610 N.am      1 K1H        -0.2387
     20 C6        -17.0050  -18.7700  -12.0810 C.3       1 K1H         0.0759
     21 N8        -19.2930  -19.2350  -12.7900 N.4       1 K1H         0.2402
     22 N17       -24.3820  -19.0490  -10.2310 N.pl3     1 K1H        -0.2875
     23 C18       -24.7830  -19.1800   -8.9560 C.ar      1 K1H         0.1490
     24 N19       -23.8580  -19.2760   -7.9830 N.ar      1 K1H        -0.2504
     25 N21       -25.5740  -19.6650   -6.3400 N.ar      1 K1H        -0.2893
     26 C23       -26.1870  -19.2950   -8.6770 C.ar      1 K1H         0.0674
     27 C25       -28.5340  -19.4570   -9.2830 C.ar      1 K1H         0.1020
     28 C26       -28.8490  -19.7620   -7.9540 C.ar      1 K1H        -0.0241
     29 C28       -29.5550  -19.4730  -10.2960 C.1       1 K1H         0.0996
     30 H1        -14.1963  -16.6429  -16.5333 H         1 K1H         0.0575
     31 H2        -13.3340  -17.1014  -15.0257 H         1 K1H         0.0575
     32 H3        -14.4119  -15.6646  -15.0423 H         1 K1H         0.0575
     33 H4        -18.6551  -17.4225  -11.9151 H         1 K1H         0.0834
     34 H5        -18.7145  -18.8299  -10.8004 H         1 K1H         0.0834
     35 H6        -19.5914  -19.4233  -14.8695 H         1 K1H         0.0834
     36 H7        -19.2087  -17.7636  -14.2989 H         1 K1H         0.0834
     37 H8        -17.2741  -18.6626  -15.4645 H         1 K1H         0.0575
     38 H9        -17.3084  -20.1489  -14.4563 H         1 K1H         0.0575
     39 H10       -21.2575  -19.5695  -13.3797 H         1 K1H         0.0851
     40 H11       -21.1892  -17.1963  -12.9662 H         1 K1H         0.0321
     41 H12       -20.7448  -17.4647  -11.2465 H         1 K1H         0.0321
     42 H13       -23.3529  -18.2893  -12.6210 H         1 K1H         0.0291
     43 H14       -23.1394  -16.9823  -11.4074 H         1 K1H         0.0291
     44 H15       -22.4075  -18.6410   -9.7463 H         1 K1H         0.0571
     45 H16       -23.0694  -20.6916  -11.9009 H         1 K1H         0.0291
     46 H17       -22.6347  -21.0468  -10.1946 H         1 K1H         0.0291
     47 H18       -20.4254  -20.0800  -10.5002 H         1 K1H         0.0321
     48 H19       -20.7182  -21.2980  -11.7876 H         1 K1H         0.0321
     49 H20       -23.5620  -19.5595   -5.9663 H         1 K1H         0.1084
     50 H21       -26.9832  -18.9558  -10.6709 H         1 K1H         0.0823
     51 H22       -28.1426  -20.0569   -5.9754 H         1 K1H         0.0636
     52 H23       -16.7981  -19.8394  -11.9276 H         1 K1H         0.0575
     53 H24       -16.3933  -18.1749  -11.3870 H         1 K1H         0.0575
     54 H25       -19.0020  -20.1975  -12.7194 H         1 K1H         0.2038
     55 H26       -25.0995  -18.9996  -10.9683 H         1 K1H         0.1928
     56 H27       -29.8799  -19.9539   -7.6792 H         1 K1H         0.0743
@<TRIPOS>BOND
     1   18    1 1  
     2    2    3 2  
     3    2   18 1  
     4   19    2 am 
     5    4   20 1  
     6   21    4 1  
     7    5    6 1  
     8   21    5 1  
     9    6   19 1  
    10    8    7 1  
    11   12    7 1  
    12    7   21 1  
    13    9    8 1  
    14   10    9 1  
    15   10   11 1  
    16   22   10 1  
    17   11   12 1  
    18   24   13 ar 
    19   25   13 ar 
    20   16   14 ar 
    21   14   25 ar 
    22   26   14 ar 
    23   15   26 ar 
    24   27   15 ar 
    25   28   16 ar 
    26   29   17 3  
    27   20   19 1  
    28   23   22 1  
    29   23   24 ar 
    30   26   23 ar 
    31   27   28 ar 
    32   27   29 1  
    33    1   30 1  
    34    1   31 1  
    35    1   32 1  
    36    4   33 1  
    37    4   34 1  
    38    5   35 1  
    39    5   36 1  
    40    6   37 1  
    41    6   38 1  
    42    7   39 1  
    43    8   40 1  
    44    8   41 1  
    45    9   42 1  
    46    9   43 1  
    47   10   44 1  
    48   11   45 1  
    49   11   46 1  
    50   12   47 1  
    51   12   48 1  
    52   13   49 1  
    53   15   50 1  
    54   16   51 1  
    55   20   52 1  
    56   20   53 1  
    57   21   54 1  
    58   22   55 1  
    59   28   56 1  
@<TRIPOS>SUBSTRUCTURE
     1 K1H         1

