### 
### Created by X-TOOL on Mon Aug  2 16:16:45 2021
### 

@<TRIPOS>MOLECULE
6rfj_ligand
   70    74     1     0     0
SMALL
GAST_HUCK


@<TRIPOS>ATOM
      1 C1        -26.1760  -38.6310   -5.8550 C.3       1 K1E         0.0558
      2 C8        -20.2060  -39.3750   -6.9280 C.ar      1 K1E         0.1768
      3 C10       -19.4680  -39.9000   -9.0540 C.ar      1 K1E         0.1479
      4 C11       -18.1160  -39.9090   -8.5680 C.ar      1 K1E         0.1017
      5 C13       -15.8320  -40.1670   -8.8740 C.ar      1 K1E         0.0563
      6 C14       -15.5730  -39.8960   -7.5270 C.ar      1 K1E        -0.0248
      7 C15       -16.6150  -39.6250   -6.6890 C.ar      1 K1E        -0.0313
      8 C16       -17.9340  -39.6230   -7.1870 C.ar      1 K1E         0.0470
      9 C19       -15.2460  -40.7170  -11.1630 C.1       1 K1E         0.1064
     10 C22       -21.1270  -40.1530  -10.8530 C.3       1 K1E         0.0443
     11 C24       -23.1780  -38.8570  -11.5420 C.3       1 K1E        -0.0075
     12 C27       -21.2790  -41.0660  -12.0550 C.3       1 K1E        -0.0238
     13 C30       -27.1510  -40.4070  -12.9970 C.3       1 K1E         0.0759
     14 C32       -26.2260  -40.0390  -15.2420 C.3       1 K1E         0.0759
     15 C33       -24.8310  -40.2980  -14.6780 C.3       1 K1E        -0.0107
     16 C34       -28.0590  -41.6990  -14.9130 C.2       1 K1E         0.3221
     17 N2        -24.8180  -38.8500   -6.3290 N.pl3     1 K1E        -0.2210
     18 N3        -24.5760  -39.1610   -7.6470 N.2       1 K1E        -0.2230
     19 C4        -23.2640  -39.2910   -7.7260 C.2       1 K1E         0.0217
     20 C5        -22.6600  -39.0710   -6.4850 C.2       1 K1E         0.0753
     21 C6        -23.6830  -38.7940   -5.6240 C.2       1 K1E         0.0658
     22 N7        -21.3020  -39.1090   -6.1290 N.pl3     1 K1E        -0.2639
     23 N9        -20.4710  -39.6350   -8.2220 N.ar      1 K1E        -0.2324
     24 N12       -17.0630  -40.1770   -9.3960 N.ar      1 K1E        -0.2861
     25 N17       -18.9900  -39.3520   -6.3500 N.ar      1 K1E        -0.2847
     26 C18       -14.7020  -40.4710   -9.8290 C.3       1 K1E         0.1222
     27 N20       -15.6550  -40.9090  -12.2050 N.1       1 K1E        -0.3007
     28 N21       -19.7610  -40.1550  -10.3470 N.pl3     1 K1E        -0.2903
     29 C23       -21.6890  -38.7740  -11.1550 C.3       1 K1E        -0.0238
     30 C25       -23.4190  -39.8760  -12.6670 C.3       1 K1E        -0.0206
     31 C26       -22.7540  -41.2320  -12.4110 C.3       1 K1E        -0.0075
     32 N28       -24.7740  -39.9080  -13.2560 N.4       1 K1E         0.2402
     33 C29       -25.7520  -40.6890  -12.4890 C.3       1 K1E        -0.0107
     34 N31       -27.2460  -40.7270  -14.4290 N.am      1 K1E        -0.2387
     35 O35       -28.1560  -41.9830  -16.0850 O.2       1 K1E        -0.3774
     36 O36       -28.7410  -42.3080  -13.9270 O.3       1 K1E        -0.2671
     37 C37       -29.6410  -43.3680  -14.3420 C.3       1 K1E         0.0663
     38 H1        -26.1559  -38.3958   -4.7806 H         1 K1E         0.0596
     39 H2        -26.7731  -39.5399   -6.0202 H         1 K1E         0.0596
     40 H3        -26.6257  -37.7917   -6.4057 H         1 K1E         0.0596
     41 H4        -14.5557  -39.9012   -7.1527 H         1 K1E         0.0706
     42 H5        -16.4292  -39.4117   -5.6426 H         1 K1E         0.0725
     43 H6        -21.7512  -40.5727  -10.0504 H         1 K1E         0.0569
     44 H7        -23.5136  -37.8659  -11.8814 H         1 K1E         0.0320
     45 H8        -23.7594  -39.1582  -10.6582 H         1 K1E         0.0320
     46 H9        -20.8496  -42.0509  -11.8192 H         1 K1E         0.0290
     47 H10       -20.7458  -40.6292  -12.9122 H         1 K1E         0.0290
     48 H11       -27.3845  -39.3427  -12.8464 H         1 K1E         0.0575
     49 H12       -27.8713  -41.0230  -12.4386 H         1 K1E         0.0575
     50 H13       -26.2741  -40.4126  -16.2755 H         1 K1E         0.0575
     51 H14       -26.4252  -38.9572  -15.2335 H         1 K1E         0.0575
     52 H15       -24.0949  -39.7097  -15.2455 H         1 K1E         0.0834
     53 H16       -24.5949  -41.3684  -14.7706 H         1 K1E         0.0834
     54 H17       -22.7235  -39.5374   -8.6388 H         1 K1E         0.0635
     55 H18       -23.5917  -38.5696   -4.5623 H         1 K1E         0.0826
     56 H19       -21.0949  -38.9122   -5.1394 H         1 K1E         0.2079
     57 H20       -14.1598  -41.3636   -9.4836 H         1 K1E         0.0753
     58 H21       -14.0126  -39.6147   -9.8662 H         1 K1E         0.0753
     59 H22       -18.9905  -40.3584  -10.9996 H         1 K1E         0.1913
     60 H23       -21.1249  -38.3304  -11.9887 H         1 K1E         0.0290
     61 H24       -21.5842  -38.1395  -10.2626 H         1 K1E         0.0290
     62 H25       -22.8201  -39.4664  -13.4938 H         1 K1E         0.0851
     63 H26       -23.2697  -41.7328  -11.5784 H         1 K1E         0.0320
     64 H27       -22.8368  -41.8489  -13.3179 H         1 K1E         0.0320
     65 H28       -25.0940  -38.9528  -13.2206 H         1 K1E         0.2038
     66 H29       -25.5321  -41.7608  -12.6024 H         1 K1E         0.0834
     67 H30       -25.6872  -40.4118  -11.4265 H         1 K1E         0.0834
     68 H31       -30.1414  -43.7910  -13.4584 H         1 K1E         0.0575
     69 H32       -29.0682  -44.1568  -14.8516 H         1 K1E         0.0575
     70 H33       -30.3956  -42.9598  -15.0304 H         1 K1E         0.0575
@<TRIPOS>BOND
     1   17    1 1  
     2    2   22 1  
     3   23    2 ar 
     4    2   25 ar 
     5    3    4 ar 
     6    3   23 ar 
     7   28    3 1  
     8    4    8 ar 
     9    4   24 ar 
    10    5    6 ar 
    11   24    5 ar 
    12    5   26 1  
    13    7    6 ar 
    14    8    7 ar 
    15    8   25 ar 
    16   26    9 1  
    17    9   27 3  
    18   12   10 1  
    19   10   28 1  
    20   29   10 1  
    21   11   29 1  
    22   30   11 1  
    23   31   12 1  
    24   13   33 1  
    25   34   13 1  
    26   15   14 1  
    27   14   34 1  
    28   32   15 1  
    29   34   16 am 
    30   16   35 2  
    31   16   36 1  
    32   17   18 1  
    33   21   17 1  
    34   19   18 2  
    35   20   19 1  
    36   20   21 2  
    37   22   20 1  
    38   30   31 1  
    39   30   32 1  
    40   32   33 1  
    41   36   37 1  
    42    1   38 1  
    43    1   39 1  
    44    1   40 1  
    45    6   41 1  
    46    7   42 1  
    47   10   43 1  
    48   11   44 1  
    49   11   45 1  
    50   12   46 1  
    51   12   47 1  
    52   13   48 1  
    53   13   49 1  
    54   14   50 1  
    55   14   51 1  
    56   15   52 1  
    57   15   53 1  
    58   19   54 1  
    59   21   55 1  
    60   22   56 1  
    61   26   57 1  
    62   26   58 1  
    63   28   59 1  
    64   29   60 1  
    65   29   61 1  
    66   30   62 1  
    67   31   63 1  
    68   31   64 1  
    69   32   65 1  
    70   33   66 1  
    71   33   67 1  
    72   37   68 1  
    73   37   69 1  
    74   37   70 1  
@<TRIPOS>SUBSTRUCTURE
     1 K1E         1

