### 
### Created by X-TOOL on Mon Aug  2 16:16:45 2021
### 

@<TRIPOS>MOLECULE
6rfn_ligand
   64    67     1     0     0
SMALL
GAST_HUCK


@<TRIPOS>ATOM
      1 C1         22.7600   19.1020   -5.9000 C.3       1 K3W         0.0590
      2 C10        28.0290   13.2030   -2.1360 C.ar      1 K3W         0.0633
      3 C11        28.2030   12.6530   -0.8420 C.ar      1 K3W         0.1116
      4 C12        29.5540   12.8720    1.1150 C.3       1 K3W         0.0609
      5 C13        27.8820   11.3130   -0.6100 C.ar      1 K3W        -0.0288
      6 C14        27.3860   10.5180   -1.6290 C.ar      1 K3W        -0.0607
      7 C15        27.1970   11.0430   -2.9050 C.ar      1 K3W        -0.0159
      8 C16        27.5130   12.3870   -3.1490 C.ar      1 K3W        -0.0438
      9 C17        26.6510   10.2400   -4.0410 C.2       1 K3W         0.0455
     10 C18        24.6240   10.9260   -6.8870 C.3       1 K3W         0.0738
     11 C19        25.3450   11.9410   -7.7710 C.3       1 K3W        -0.0353
     12 C2         24.0500   17.1170   -5.3490 C.ar      1 K3W         0.0772
     13 C20        23.5330   11.5440   -6.0100 C.3       1 K3W        -0.0353
     14 C21        25.9240    8.8530   -6.3320 C.2       1 K3W         0.2243
     15 C22        26.9470    8.1810   -5.4440 C.3       1 K3W         0.0759
     16 C23        26.9770    6.6450   -5.5420 C.3       1 K3W        -0.0140
     17 C24        25.8640    6.0070   -4.7850 C.2       1 K3W        -0.0958
     18 C25        25.2190    6.6070   -3.8060 C.2       1 K3W        -0.0963
     19 C26        25.4170    8.0380   -3.4160 C.3       1 K3W        -0.0215
     20 C27        26.6880    8.6920   -4.0030 C.3       1 K3W         0.0297
     21 C28        25.2120   17.7350   -4.8610 C.ar      1 K3W        -0.0140
     22 C3         24.0340   15.7480   -5.5820 C.ar      1 K3W        -0.0484
     23 C4         25.1750   15.0080   -5.3350 C.ar      1 K3W        -0.0837
     24 C5         26.3250   15.6020   -4.8380 C.ar      1 K3W        -0.0522
     25 C6         26.3550   16.9710   -4.5900 C.ar      1 K3W         0.0574
     26 C7         28.5260   17.0800   -3.2230 C.2       1 K3W         0.2738
     27 C8         28.5360   15.6830   -2.9060 C.1       1 K3W         0.0156
     28 C9         28.3400   14.5850   -2.4230 C.1       1 K3W        -0.0462
     29 N1         27.5840   17.5420   -4.1340 N.am      1 K3W        -0.2294
     30 N2         26.2020   10.9110   -5.0500 N.2       1 K3W        -0.2033
     31 N3         25.6240   10.1910   -6.0590 N.am      1 K3W        -0.1664
     32 O1         22.8350   17.6990   -5.6300 O.3       1 K3W        -0.3252
     33 O2         29.3010   17.8140   -2.6130 O.2       1 K3W        -0.3649
     34 O3         28.7300   13.4780    0.1170 O.3       1 K3W        -0.3167
     35 O4         25.3410    8.2510   -7.2180 O.2       1 K3W        -0.3833
     36 H1         21.7152   19.3814   -6.1008 H         1 K3W         0.0577
     37 H2         23.3784   19.3400   -6.7780 H         1 K3W         0.0577
     38 H3         23.1287   19.6633   -5.0288 H         1 K3W         0.0577
     39 H4         29.9076   13.6425    1.8159 H         1 K3W         0.0581
     40 H5         30.4177   12.3897    0.6341 H         1 K3W         0.0581
     41 H6         28.9709   12.1174    1.6633 H         1 K3W         0.0581
     42 H7         28.0229   10.8914    0.3787 H         1 K3W         0.0550
     43 H8         27.1431    9.4800   -1.4324 H         1 K3W         0.0600
     44 H9         27.3550   12.8007   -4.1384 H         1 K3W         0.0609
     45 H10        24.1334   10.1993   -7.5512 H         1 K3W         0.0635
     46 H11        24.6086   12.4835   -8.3820 H         1 K3W         0.0258
     47 H12        26.0526   11.4163   -8.4298 H         1 K3W         0.0258
     48 H13        25.8932   12.6544   -7.1381 H         1 K3W         0.0258
     49 H14        23.0600   10.7571   -5.4042 H         1 K3W         0.0258
     50 H15        22.7748   12.0203   -6.6490 H         1 K3W         0.0258
     51 H16        23.9798   12.2989   -5.3463 H         1 K3W         0.0258
     52 H17        27.9417    8.5321   -5.7558 H         1 K3W         0.0588
     53 H18        27.9333    6.2835   -5.1361 H         1 K3W         0.0417
     54 H19        26.8954    6.3567   -6.6004 H         1 K3W         0.0417
     55 H20        25.5690    4.9940   -5.0545 H         1 K3W         0.0452
     56 H21        24.4930    6.0226   -3.2426 H         1 K3W         0.0452
     57 H22        25.4794    8.0897   -2.3190 H         1 K3W         0.0413
     58 H23        24.5445    8.6121   -3.7612 H         1 K3W         0.0413
     59 H24        27.5341    8.3915   -3.3675 H         1 K3W         0.0505
     60 H25        25.2252   18.8059   -4.6934 H         1 K3W         0.0420
     61 H26        23.1371   15.2654   -5.9532 H         1 K3W         0.0418
     62 H27        25.1706   13.9424   -5.5338 H         1 K3W         0.0552
     63 H28        27.2036   14.9981   -4.6420 H         1 K3W         0.0414
     64 H29        27.8039   18.4282   -4.5417 H         1 K3W         0.2256
@<TRIPOS>BOND
     1   32    1 1  
     2    2    3 ar 
     3    2    8 ar 
     4   28    2 1  
     5    3    5 ar 
     6    3   34 1  
     7   34    4 1  
     8    5    6 ar 
     9    7    6 ar 
    10    8    7 ar 
    11    7    9 1  
    12    9   20 1  
    13    9   30 2  
    14   10   11 1  
    15   10   13 1  
    16   31   10 1  
    17   21   12 ar 
    18   12   22 ar 
    19   12   32 1  
    20   15   14 1  
    21   14   31 am 
    22   14   35 2  
    23   15   16 1  
    24   20   15 1  
    25   16   17 1  
    26   18   17 2  
    27   19   18 1  
    28   20   19 1  
    29   25   21 ar 
    30   23   22 ar 
    31   24   23 ar 
    32   25   24 ar 
    33   29   25 1  
    34   27   26 1  
    35   26   29 am 
    36   26   33 2  
    37   27   28 3  
    38   30   31 1  
    39    1   36 1  
    40    1   37 1  
    41    1   38 1  
    42    4   39 1  
    43    4   40 1  
    44    4   41 1  
    45    5   42 1  
    46    6   43 1  
    47    8   44 1  
    48   10   45 1  
    49   11   46 1  
    50   11   47 1  
    51   11   48 1  
    52   13   49 1  
    53   13   50 1  
    54   13   51 1  
    55   15   52 1  
    56   16   53 1  
    57   16   54 1  
    58   17   55 1  
    59   18   56 1  
    60   19   57 1  
    61   19   58 1  
    62   20   59 1  
    63   21   60 1  
    64   22   61 1  
    65   23   62 1  
    66   24   63 1  
    67   29   64 1  
@<TRIPOS>SUBSTRUCTURE
     1 K3W         1

