### 
### Created by X-TOOL on Mon Aug  2 16:16:45 2021
### 

@<TRIPOS>MOLECULE
6rfw_ligand
   66    69     1     0     0
SMALL
GAST_HUCK


@<TRIPOS>ATOM
      1 C6         27.3060   10.4740   -1.8130 C.ar      1 K1Q        -0.0607
      2 C5         27.0040   11.0630   -3.0360 C.ar      1 K1Q        -0.0159
      3 C8         26.4440   10.2600   -4.1600 C.2       1 K1Q         0.0455
      4 C4         27.2200   12.4340   -3.2230 C.ar      1 K1Q        -0.0438
      5 N3         28.5480   17.5210   -4.0420 N.am      1 K1Q        -0.2782
      6 C2         28.0530   12.6040   -0.9580 C.ar      1 K1Q         0.1117
      7 N1         25.8450   10.9230   -5.0860 N.2       1 K1Q        -0.2033
      8 C1         29.1860   12.8390    1.1470 C.3       1 K1Q         0.0609
      9 C10        24.9620   11.8700   -7.8910 C.3       1 K1Q        -0.0353
     10 C11        23.3180   11.6960   -5.9660 C.3       1 K1Q        -0.0353
     11 C12        25.7090    8.9510   -6.4950 C.2       1 K1Q         0.2243
     12 C13        26.8010    8.3000   -5.6730 C.3       1 K1Q         0.0759
     13 C14        26.8960    6.7690   -5.8100 C.3       1 K1Q        -0.0140
     14 C15        25.9120    6.0410   -4.9580 C.2       1 K1Q        -0.0958
     15 C16        25.2880    6.5870   -3.9340 C.2       1 K1Q        -0.0963
     16 C17        25.4090    8.0260   -3.5540 C.3       1 K1Q        -0.0215
     17 C18        26.6090    8.7380   -4.1990 C.3       1 K1Q         0.0297
     18 C19        28.0160   14.6240   -2.3790 C.1       1 K1Q        -0.0466
     19 C20        28.3570   15.7680   -2.5330 C.1       1 K1Q         0.0091
     20 C21        28.8340   17.0890   -2.8070 C.2       1 K1Q         0.2466
     21 C22        28.2670   16.6090   -5.1330 C.3       1 K1Q         0.0399
     22 C23        27.3200   17.2060   -6.1140 C.3       1 K1Q         0.0019
     23 C24        25.8670   17.3680   -5.7160 C.ar      1 K1Q        -0.0074
     24 C25        24.9780   16.2990   -5.6510 C.ar      1 K1Q         0.1331
     25 C26        23.6410   16.4420   -5.3670 C.ar      1 K1Q        -0.0349
     26 C27        23.1480   17.7080   -5.1580 C.ar      1 K1Q        -0.0706
     27 C28        23.9890   18.8050   -5.2270 C.ar      1 K1Q        -0.0726
     28 C29        25.3380   18.6400   -5.5110 C.ar      1 K1Q        -0.0619
     29 C3         27.7420   13.2200   -2.1900 C.ar      1 K1Q         0.0633
     30 C7         27.8250   11.2380   -0.7840 C.ar      1 K1Q        -0.0288
     31 C9         24.2710   10.9480   -6.8970 C.3       1 K1Q         0.0738
     32 F1         25.4540   15.0430   -5.8570 F         1 K1Q        -0.1891
     33 N2         25.3080   10.2170   -6.1210 N.am      1 K1Q        -0.1664
     34 O1         28.5650   13.4340    0.0080 O.3       1 K1Q        -0.3167
     35 O2         25.1730    8.3970   -7.4390 O.2       1 K1Q        -0.3833
     36 O3         29.4690   17.7750   -2.0040 O.2       1 K1Q        -0.3767
     37 H1         27.1342    9.4138   -1.6661 H         1 K1Q         0.0600
     38 H2         26.9806   12.8903   -4.1767 H         1 K1Q         0.0609
     39 H3         28.5276   18.5053   -4.2173 H         1 K1Q         0.1852
     40 H4         29.5428   13.6288    1.8245 H         1 K1Q         0.0581
     41 H5         30.0374   12.2236    0.8208 H         1 K1Q         0.0581
     42 H6         28.4565   12.2062    1.6736 H         1 K1Q         0.0581
     43 H7         24.2045   12.4168   -8.4716 H         1 K1Q         0.0258
     44 H8         25.5858   11.2730   -8.5725 H         1 K1Q         0.0258
     45 H9         25.5951   12.5867   -7.3474 H         1 K1Q         0.0258
     46 H10        22.8487   10.9832   -5.2720 H         1 K1Q         0.0258
     47 H11        22.5392   12.1944   -6.5618 H         1 K1Q         0.0258
     48 H12        23.8800   12.4488   -5.3938 H         1 K1Q         0.0258
     49 H13        27.7611    8.7055   -6.0246 H         1 K1Q         0.0588
     50 H14        27.9094    6.4542   -5.5205 H         1 K1Q         0.0417
     51 H15        26.7147    6.5001   -6.8611 H         1 K1Q         0.0417
     52 H16        25.6972    5.0001   -5.1954 H         1 K1Q         0.0452
     53 H17        24.6451    5.9503   -3.3281 H         1 K1Q         0.0452
     54 H18        25.5149    8.0886   -2.4609 H         1 K1Q         0.0413
     55 H19        24.4900    8.5452   -3.8637 H         1 K1Q         0.0413
     56 H20        27.5116    8.4676   -3.6314 H         1 K1Q         0.0505
     57 H21        27.8248   15.6885   -4.7243 H         1 K1Q         0.0541
     58 H22        29.2085   16.3665   -5.6475 H         1 K1Q         0.0541
     59 H23        27.3409   16.5711   -7.0120 H         1 K1Q         0.0438
     60 H24        27.7009   18.2072   -6.3638 H         1 K1Q         0.0438
     61 H25        22.9905   15.5768   -5.3092 H         1 K1Q         0.0585
     62 H26        22.0958   17.8478   -4.9381 H         1 K1Q         0.0549
     63 H27        23.5919   19.7994   -5.0582 H         1 K1Q         0.0565
     64 H28        25.9845   19.5079   -5.5737 H         1 K1Q         0.0546
     65 H29        28.0570   10.7717    0.1667 H         1 K1Q         0.0550
     66 H30        23.6786   10.2150   -7.4642 H         1 K1Q         0.0635
@<TRIPOS>BOND
     1    2    1 ar 
     2    1   30 ar 
     3    3    2 1  
     4    2    4 ar 
     5    7    3 2  
     6    3   17 1  
     7    4   29 ar 
     8   20    5 am 
     9    5   21 1  
    10   29    6 ar 
    11   30    6 ar 
    12    6   34 1  
    13   33    7 1  
    14   34    8 1  
    15   31    9 1  
    16   31   10 1  
    17   11   12 1  
    18   33   11 am 
    19   11   35 2  
    20   12   13 1  
    21   12   17 1  
    22   13   14 1  
    23   14   15 2  
    24   16   15 1  
    25   17   16 1  
    26   18   19 3  
    27   29   18 1  
    28   19   20 1  
    29   20   36 2  
    30   21   22 1  
    31   22   23 1  
    32   23   24 ar 
    33   23   28 ar 
    34   24   25 ar 
    35   24   32 1  
    36   25   26 ar 
    37   27   26 ar 
    38   28   27 ar 
    39   31   33 1  
    40    1   37 1  
    41    4   38 1  
    42    5   39 1  
    43    8   40 1  
    44    8   41 1  
    45    8   42 1  
    46    9   43 1  
    47    9   44 1  
    48    9   45 1  
    49   10   46 1  
    50   10   47 1  
    51   10   48 1  
    52   12   49 1  
    53   13   50 1  
    54   13   51 1  
    55   14   52 1  
    56   15   53 1  
    57   16   54 1  
    58   16   55 1  
    59   17   56 1  
    60   21   57 1  
    61   21   58 1  
    62   22   59 1  
    63   22   60 1  
    64   25   61 1  
    65   26   62 1  
    66   27   63 1  
    67   28   64 1  
    68   30   65 1  
    69   31   66 1  
@<TRIPOS>SUBSTRUCTURE
     1 K1Q         1

