### 
### Created by X-TOOL on Mon Aug  2 16:16:45 2021
### 

@<TRIPOS>MOLECULE
6rhe_ligand
   54    54     1     0     0
SMALL
GAST_HUCK


@<TRIPOS>ATOM
      1 C          49.6080   -6.2850   -9.0650 C.2       1 ACY         0.1751
      2 O          50.6650   -6.8830   -8.8800 O.2       1 ACY        -0.3972
      3 CH3        49.6330   -4.8150   -9.5680 C.3       1 ACY         0.0258
      4 N          48.3790   -6.8380   -8.8480 N.am      1 ACY        -0.2661
      5 CA         48.1690   -8.2310   -8.3420 C.3       1 ACY         0.1281
      6 C          47.5110   -9.1100   -9.4420 C.2       1 ACY         0.2037
      7 O          47.4990  -10.3320   -9.2840 O.2       1 ACY        -0.3944
      8 CB         47.3180   -8.2300   -7.0340 C.3       1 ACY        -0.0244
      9 N          47.0160   -8.4220  -10.5280 N.am      1 ACY        -0.2625
     10 CA         46.3660   -8.9710  -11.7480 C.3       1 ACY         0.1369
     11 C          45.8680   -7.7610  -12.6340 C.2       1 ACY         0.2054
     12 O          46.2290   -6.6340  -12.3270 O.2       1 ACY        -0.3942
     13 CB         45.2380   -9.9500  -11.3800 C.3       1 ACY         0.0145
     14 CG         44.0740   -9.3130  -10.5880 C.2       1 ACY        -0.0027
     15 ND1        43.2210   -8.3670  -10.9850 N.2       1 ACY        -0.3252
     16 CD2        43.7430   -9.6730   -9.3590 C.2       1 ACY         0.0291
     17 CE1        42.3610   -8.1260   -9.9910 C.2       1 ACY         0.0907
     18 NE2        42.6850   -8.9350   -8.9860 N.pl3     1 ACY        -0.2752
     19 N          45.0390   -7.9880  -13.6980 N.am      1 ACY        -0.2628
     20 CA         44.4610   -6.9010  -14.5710 C.3       1 ACY         0.1396
     21 C          43.0890   -6.3300  -14.0640 C.2       1 ACY         0.2045
     22 O          42.7940   -6.4420  -12.8770 O.2       1 ACY        -0.3944
     23 CB         44.2100   -7.5910  -15.9330 C.3       1 ACY         0.0311
     24 SG         45.8240   -7.6570  -16.7110 S.3       1 ACY        -0.1735
     25 N          42.2490   -5.7370  -14.9790 N.am      1 ACY        -0.2664
     26 CA         40.8750   -5.2420  -14.7240 C.3       1 ACY         0.1198
     27 C          40.6650   -4.4630  -13.3780 C.2       1 ACY         0.1960
     28 O          41.5740   -3.9420  -12.7250 O.2       1 ACY        -0.3951
     29 N          39.3950   -4.3760  -12.9970 N.am      1 ACY        -0.2992
     30 H1         48.6021   -4.4465   -9.6750 H         1 ACY         0.0467
     31 H2         50.1416   -4.7694  -10.5423 H         1 ACY         0.0467
     32 H3         50.1729   -4.1884   -8.8428 H         1 ACY         0.0467
     33 H4         47.5715   -6.2797   -9.0383 H         1 ACY         0.1882
     34 H5         49.1534   -8.6609   -8.1050 H         1 ACY         0.0797
     35 H6         47.1799   -9.2642   -6.6857 H         1 ACY         0.0277
     36 H7         46.3362   -7.7768   -7.2357 H         1 ACY         0.0277
     37 H8         47.8380   -7.6484   -6.2586 H         1 ACY         0.0277
     38 H9         47.1050   -7.4266  -10.4914 H         1 ACY         0.1885
     39 H10        47.1181   -9.5305  -12.3235 H         1 ACY         0.0817
     40 H11        45.6685  -10.7573  -10.7694 H         1 ACY         0.0420
     41 H12        44.8308  -10.3715  -12.3108 H         1 ACY         0.0420
     42 H13        44.2399  -10.4324   -8.7571 H         1 ACY         0.0729
     43 H14        41.5471   -7.4026  -10.0017 H         1 ACY         0.1199
     44 H15        42.2055   -8.9866   -8.0759 H         1 ACY         0.2361
     45 H16        44.8005   -8.9354  -13.9112 H         1 ACY         0.1884
     46 H17        45.1828   -6.0768  -14.6693 H         1 ACY         0.0808
     47 H18        43.5087   -7.0027  -16.5430 H         1 ACY         0.0422
     48 H19        43.8078   -8.6043  -15.7867 H         1 ACY         0.0422
     49 H20        46.1796   -6.7206  -16.8243 H         1 ACY         0.1019
     50 H21        42.6007   -5.6293  -15.9089 H         1 ACY         0.1881
     51 H22        40.1995   -6.1102  -14.7196 H         1 ACY         0.0763
     52 H23        40.6010   -4.5684  -15.5493 H         1 ACY         0.0763
     53 H24        39.1584   -3.8980  -12.1511 H         1 ACY         0.1815
     54 H25        38.6759   -4.7885  -13.5561 H         1 ACY         0.1815
@<TRIPOS>BOND
     1    1    2 2  
     2    1    3 1  
     3    1    4 am 
     4    4    5 1  
     5    5    6 1  
     6    5    8 1  
     7    6    7 2  
     8    6    9 am 
     9    9   10 1  
    10   10   11 1  
    11   10   13 1  
    12   11   12 2  
    13   11   19 am 
    14   13   14 1  
    15   14   15 1  
    16   14   16 2  
    17   15   17 2  
    18   16   18 1  
    19   17   18 1  
    20   19   20 1  
    21   20   21 1  
    22   20   23 1  
    23   21   22 2  
    24   21   25 am 
    25   23   24 1  
    26   25   26 1  
    27   26   27 1  
    28   27   28 2  
    29   27   29 am 
    30    3   30 1  
    31    3   31 1  
    32    3   32 1  
    33    4   33 1  
    34    5   34 1  
    35    8   35 1  
    36    8   36 1  
    37    8   37 1  
    38    9   38 1  
    39   10   39 1  
    40   13   40 1  
    41   13   41 1  
    42   16   42 1  
    43   17   43 1  
    44   18   44 1  
    45   19   45 1  
    46   20   46 1  
    47   23   47 1  
    48   23   48 1  
    49   24   49 1  
    50   25   50 1  
    51   26   51 1  
    52   26   52 1  
    53   29   53 1  
    54   29   54 1  
@<TRIPOS>SUBSTRUCTURE
     1 ACY         1

