### 
### Created by X-TOOL on Mon Aug  2 16:16:46 2021
### 

@<TRIPOS>MOLECULE
6rih_ligand
   33    35     1     0     0
SMALL
GAST_HUCK


@<TRIPOS>ATOM
      1 C5         15.1940  -11.3310   71.4070 C.2       1 K4T         0.2333
      2 C6         12.6360  -12.5790   73.7150 C.2       1 K4T         0.0485
      3 C8         17.1210   -9.8350   71.2960 C.3       1 K4T         0.0416
      4 C10        17.9850   -8.8270   72.0500 C.3       1 K4T        -0.0279
      5 C13        13.8340  -14.0600   70.7120 C.3       1 K4T         0.0620
      6 C15        11.9410  -11.6430   75.9340 C.ar      1 K4T        -0.0548
      7 C17        11.1360  -11.6720   77.0630 C.ar      1 K4T        -0.0622
      8 C1         14.1470  -12.0240   72.1780 C.2       1 K4T         0.1604
      9 N2         13.5480  -13.2210   71.8800 N.pl3     1 K4T        -0.1915
     10 C3         13.5830  -11.5950   73.3680 C.2       1 K4T        -0.0169
     11 N4         12.6830  -13.5080   72.7850 N.2       1 K4T        -0.1992
     12 N7         16.0690  -10.5310   72.0460 N.am      1 K4T        -0.2811
     13 C9         16.9320   -8.3370   71.0530 C.3       1 K4T        -0.0279
     14 O11        15.2820  -11.4820   70.2000 O.2       1 K4T        -0.3823
     15 C12        11.7690  -12.5960   74.9230 C.ar      1 K4T        -0.0120
     16 C14        10.7860  -13.5850   75.0710 C.ar      1 K4T        -0.0548
     17 C16         9.9840  -13.6020   76.2010 C.ar      1 K4T        -0.0622
     18 C18        10.1620  -12.6520   77.2000 C.ar      1 K4T        -0.0626
     19 H1         17.5531  -10.4891   70.5243 H         1 K4T         0.0555
     20 H2         19.0546   -8.7322   71.8112 H         1 K4T         0.0288
     21 H3         17.8350   -8.6723   73.1287 H         1 K4T         0.0288
     22 H4         13.1989  -14.9577   70.7411 H         1 K4T         0.0607
     23 H5         14.8925  -14.3591   70.7257 H         1 K4T         0.0607
     24 H6         13.6251  -13.4927   69.7930 H         1 K4T         0.0607
     25 H7         12.7051  -10.8806   75.8342 H         1 K4T         0.0615
     26 H8         11.2675  -10.9279   77.8402 H         1 K4T         0.0615
     27 H9         13.8215  -10.6871   73.9200 H         1 K4T         0.0447
     28 H10        16.0015  -10.4107   73.0364 H         1 K4T         0.1847
     29 H11        16.0249   -7.8309   71.4149 H         1 K4T         0.0288
     30 H12        17.2445   -7.8907   70.0974 H         1 K4T         0.0288
     31 H13        10.6534  -14.3366   74.3012 H         1 K4T         0.0615
     32 H14         9.2151  -14.3588   76.3062 H         1 K4T         0.0615
     33 H15         9.5396  -12.6763   78.0872 H         1 K4T         0.0610
@<TRIPOS>BOND
     1    8    1 1  
     2    1   12 am 
     3    1   14 2  
     4   10    2 1  
     5    2   11 2  
     6    2   15 1  
     7    3    4 1  
     8   12    3 1  
     9    3   13 1  
    10   13    4 1  
    11    9    5 1  
    12    6    7 ar 
    13   15    6 ar 
    14    7   18 ar 
    15    8    9 1  
    16    8   10 2  
    17    9   11 1  
    18   15   16 ar 
    19   16   17 ar 
    20   17   18 ar 
    21    3   19 1  
    22    4   20 1  
    23    4   21 1  
    24    5   22 1  
    25    5   23 1  
    26    5   24 1  
    27    6   25 1  
    28    7   26 1  
    29   10   27 1  
    30   12   28 1  
    31   13   29 1  
    32   13   30 1  
    33   16   31 1  
    34   17   32 1  
    35   18   33 1  
@<TRIPOS>SUBSTRUCTURE
     1 K4T         1

