### 
### Created by X-TOOL on Mon Aug  2 16:16:46 2021
### 

@<TRIPOS>MOLECULE
6rj2_ligand
   52    54     1     0     0
SMALL
GAST_HUCK


@<TRIPOS>ATOM
      1 C4         23.3900   -7.6630    0.4120 C.ar      1 K52        -0.0563
      2 C5         25.0070   -8.6900    3.2310 C.3       1 K52        -0.0320
      3 C7         21.2720   -6.6320    1.8930 C.ar      1 K52        -0.0415
      4 C8         22.5900   -6.6570   -0.1170 C.ar      1 K52        -0.0415
      5 C10        22.2020  -10.9520    2.2830 C.2       1 K52         0.2351
      6 C15        19.5040  -12.2370    4.3830 C.2       1 K52         0.0485
      7 C17        20.9260  -13.7040    1.4690 C.3       1 K52         0.0620
      8 C20        16.7450  -13.2760    6.7300 C.ar      1 K52        -0.0622
      9 C21        16.8040  -12.2750    7.6880 C.ar      1 K52        -0.0626
     10 C22        17.7480  -11.2600    7.5750 C.ar      1 K52        -0.0622
     11 C28        22.4520   -3.0820   -0.0860 C.2       1 K52         0.1929
     12 C1         23.1450   -8.1340    1.6950 C.ar      1 K52        -0.0182
     13 C2         23.9670   -9.2630    2.2690 C.3       1 K52         0.0722
     14 C3         22.0700   -7.6280    2.4210 C.ar      1 K52        -0.0563
     15 N6         22.9990  -10.1090    2.9760 N.am      1 K52        -0.2702
     16 C9         21.5230   -6.1540    0.6180 C.ar      1 K52         0.1062
     17 O11        22.3240  -11.0650    1.0690 O.2       1 K52        -0.3821
     18 C12        21.1530  -11.7010    2.9970 C.2       1 K52         0.1605
     19 N13        20.5660  -12.8850    2.6340 N.pl3     1 K52        -0.1915
     20 N14        19.6380  -13.1770    3.4720 N.2       1 K52        -0.1992
     21 C16        20.4630  -11.2440    4.1080 C.2       1 K52        -0.0169
     22 C18        18.5540  -12.2480    5.5230 C.ar      1 K52        -0.0120
     23 C19        17.6170  -13.2760    5.6510 C.ar      1 K52        -0.0548
     24 C23        18.6300  -11.2570    6.5070 C.ar      1 K52        -0.0548
     25 S24        20.5130   -4.8650   -0.0360 S.o2      1 K52         0.0877
     26 O25        19.7080   -5.4300   -1.0620 O.2       1 K52        -0.1464
     27 O26        19.9740   -4.1980    1.1090 O.2       1 K52        -0.1464
     28 N27        21.5570   -3.8200   -0.7790 N.am      1 K52        -0.1549
     29 O29        22.5120   -3.1350    1.1330 O.2       1 K52        -0.3957
     30 C30        23.3770   -2.1690   -0.8530 C.3       1 K52         0.0272
     31 H1         24.2017   -8.0781   -0.1745 H         1 K52         0.0558
     32 H2         25.6082   -9.5095    3.6516 H         1 K52         0.0274
     33 H3         24.4974   -8.1540    4.0452 H         1 K52         0.0274
     34 H4         25.6641   -7.9942    2.6887 H         1 K52         0.0274
     35 H5         20.4523   -6.2260    2.4746 H         1 K52         0.0619
     36 H6         22.7988   -6.2637   -1.1053 H         1 K52         0.0619
     37 H7         20.2831  -14.5959    1.4351 H         1 K52         0.0607
     38 H8         21.9785  -14.0136    1.5495 H         1 K52         0.0607
     39 H9         20.7860  -13.1159    0.5500 H         1 K52         0.0607
     40 H10        16.0097  -14.0668    6.8253 H         1 K52         0.0615
     41 H11        16.1146  -12.2837    8.5245 H         1 K52         0.0610
     42 H12        17.7934  -10.4740    8.3201 H         1 K52         0.0615
     43 H13        24.4697   -9.8310    1.4723 H         1 K52         0.0716
     44 H14        21.8575   -8.0192    3.4094 H         1 K52         0.0558
     45 H15        22.9289  -10.0617    3.9724 H         1 K52         0.1873
     46 H16        20.6274  -10.3152    4.6522 H         1 K52         0.0447
     47 H17        17.5715  -14.0682    4.9125 H         1 K52         0.0615
     48 H18        19.3840  -10.4816    6.4334 H         1 K52         0.0615
     49 H19        21.5250   -3.7312   -1.7745 H         1 K52         0.2144
     50 H20        24.0389   -1.6426   -0.1496 H         1 K52         0.0467
     51 H21        22.7830   -1.4347   -1.4169 H         1 K52         0.0467
     52 H22        23.9835   -2.7642   -1.5515 H         1 K52         0.0467
@<TRIPOS>BOND
     1    4    1 ar 
     2    1   12 ar 
     3   13    2 1  
     4    3   14 ar 
     5   16    3 ar 
     6   16    4 ar 
     7   15    5 am 
     8    5   17 2  
     9    5   18 1  
    10    6   20 2  
    11   21    6 1  
    12    6   22 1  
    13   19    7 1  
    14    8    9 ar 
    15   23    8 ar 
    16   10    9 ar 
    17   24   10 ar 
    18   28   11 am 
    19   11   29 2  
    20   11   30 1  
    21   12   13 1  
    22   14   12 ar 
    23   13   15 1  
    24   25   16 1  
    25   18   19 1  
    26   18   21 2  
    27   19   20 1  
    28   22   23 ar 
    29   22   24 ar 
    30   25   26 2  
    31   25   27 2  
    32   25   28 am 
    33    1   31 1  
    34    2   32 1  
    35    2   33 1  
    36    2   34 1  
    37    3   35 1  
    38    4   36 1  
    39    7   37 1  
    40    7   38 1  
    41    7   39 1  
    42    8   40 1  
    43    9   41 1  
    44   10   42 1  
    45   13   43 1  
    46   14   44 1  
    47   15   45 1  
    48   21   46 1  
    49   23   47 1  
    50   24   48 1  
    51   28   49 1  
    52   30   50 1  
    53   30   51 1  
    54   30   52 1  
@<TRIPOS>SUBSTRUCTURE
     1 K52         1

