### 
### Created by X-TOOL on Mon Aug  2 16:16:47 2021
### 

@<TRIPOS>MOLECULE
6rj3_ligand
   44    46     1     0     0
SMALL
GAST_HUCK


@<TRIPOS>ATOM
      1 C5         19.5100  -12.5570    4.9320 C.2       1 K58         0.0485
      2 C6         22.0240  -11.4570    2.4980 C.2       1 K58         0.2351
      3 C7         18.6700  -12.5540    6.1480 C.ar      1 K58        -0.0120
      4 C10        20.6450  -14.1780    2.0000 C.3       1 K58         0.0620
      5 C13        16.8890  -13.5010    7.4520 C.ar      1 K58        -0.0622
      6 C15        17.0970  -12.5620    8.4470 C.ar      1 K58        -0.0626
      7 C17        23.2300   -8.8490    1.3260 C.ar      1 K58        -0.0155
      8 C20        22.9560   -7.8780   -0.8740 C.ar      1 K58        -0.0542
      9 C21        22.0870   -6.9100   -0.3430 C.ar      1 K58         0.0032
     10 C22        21.7940   -6.9330    1.0300 C.ar      1 K58        -0.0542
     11 C24        21.4990   -5.8530   -1.1940 C.2       1 K58         0.0584
     12 C14        18.0960  -11.6010    8.2980 C.ar      1 K58        -0.0622
     13 C11        17.6650  -13.5280    6.3080 C.ar      1 K58        -0.0548
     14 C12        18.8650  -11.5920    7.1500 C.ar      1 K58        -0.0548
     15 C19        23.5120   -8.8350   -0.0380 C.ar      1 K58        -0.0544
     16 C23        22.3680   -7.8840    1.8540 C.ar      1 K58        -0.0544
     17 C3         20.4860  -11.6110    4.5610 C.2       1 K58        -0.0169
     18 C1         20.9960  -12.0740    3.3510 C.2       1 K58         0.1605
     19 C18        24.9510   -9.2840    3.1190 C.3       1 K58        -0.0316
     20 C16        23.8860   -9.9060    2.2090 C.3       1 K58         0.0735
     21 N4         19.5180  -13.5180    4.0400 N.2       1 K58        -0.1992
     22 N2         20.3650  -13.2640    3.1100 N.pl3     1 K58        -0.1915
     23 N9         22.8890  -10.5730    3.0510 N.am      1 K58        -0.2698
     24 O26        21.0170   -4.7460   -0.5940 O.co2     1 K58        -0.5625
     25 O25        21.4830   -5.9560   -2.4100 O.co2     1 K58        -0.5625
     26 O8         22.0680  -11.7070    1.2900 O.2       1 K58        -0.3821
     27 H1         19.9798  -15.0514    2.0676 H         1 K58         0.0607
     28 H2         21.6924  -14.5098    2.0535 H         1 K58         0.0607
     29 H3         20.4730  -13.6591    1.0454 H         1 K58         0.0607
     30 H4         16.0986  -14.2330    7.5724 H         1 K58         0.0615
     31 H5         16.4841  -12.5736    9.3410 H         1 K58         0.0610
     32 H6         23.1909   -7.8769   -1.9323 H         1 K58         0.0634
     33 H7         21.1130   -6.2001    1.4472 H         1 K58         0.0634
     34 H8         18.2681  -10.8667    9.0766 H         1 K58         0.0615
     35 H9         17.5031  -14.2844    5.5486 H         1 K58         0.0615
     36 H10        19.6279  -10.8326    7.0223 H         1 K58         0.0615
     37 H11        24.1767   -9.5841   -0.4528 H         1 K58         0.0565
     38 H12        22.1480   -7.8808    2.9154 H         1 K58         0.0565
     39 H13        20.7781  -10.7127    5.1030 H         1 K58         0.0447
     40 H14        25.4048  -10.0689    3.7419 H         1 K58         0.0275
     41 H15        24.4838   -8.5269    3.7659 H         1 K58         0.0275
     42 H16        25.7288   -8.8099    2.5023 H         1 K58         0.0275
     43 H17        24.3643  -10.6541    1.5597 H         1 K58         0.0722
     44 H18        22.8473  -10.3763    4.0306 H         1 K58         0.1874
@<TRIPOS>BOND
     1    1    3 1  
     2   17    1 1  
     3    1   21 2  
     4    2   18 1  
     5   23    2 am 
     6    2   26 2  
     7    3   13 ar 
     8    3   14 ar 
     9   22    4 1  
    10    5    6 ar 
    11   13    5 ar 
    12   12    6 ar 
    13    7   15 ar 
    14    7   16 ar 
    15   20    7 1  
    16    8    9 ar 
    17   15    8 ar 
    18   10    9 ar 
    19    9   11 1  
    20   16   10 ar 
    21   11   24 ar 
    22   11   25 ar 
    23   14   12 ar 
    24   18   17 2  
    25   18   22 1  
    26   20   19 1  
    27   20   23 1  
    28   21   22 1  
    29    4   27 1  
    30    4   28 1  
    31    4   29 1  
    32    5   30 1  
    33    6   31 1  
    34    8   32 1  
    35   10   33 1  
    36   12   34 1  
    37   13   35 1  
    38   14   36 1  
    39   15   37 1  
    40   16   38 1  
    41   17   39 1  
    42   19   40 1  
    43   19   41 1  
    44   19   42 1  
    45   20   43 1  
    46   23   44 1  
@<TRIPOS>SUBSTRUCTURE
     1 K58         1

