### 
### Created by X-TOOL on Mon Aug  2 16:16:47 2021
### 

@<TRIPOS>MOLECULE
6rj5_ligand
   52    54     1     0     0
SMALL
GAST_HUCK


@<TRIPOS>ATOM
      1 N1         20.6880   -6.1100   -1.8880 N.am      1 K5N        -0.1589
      2 C4         21.5700   -6.8920    0.2530 C.ar      1 K5N         0.0443
      3 C5         22.3850   -7.8440   -0.3850 C.ar      1 K5N        -0.0484
      4 C6         23.0680   -8.8010    0.3510 C.ar      1 K5N        -0.0522
      5 C7         22.9690   -8.8060    1.7370 C.ar      1 K5N        -0.0136
      6 C8         23.7020   -9.8640    2.5330 C.3       1 K5N         0.0744
      7 C10        24.7540   -9.1810    3.4100 C.3       1 K5N        -0.0313
      8 C20        19.2590  -12.5150    5.2310 C.2       1 K5N         0.0485
      9 C22        20.3160  -14.1050    2.2490 C.3       1 K5N         0.0620
     10 C26        17.4680  -13.5060    6.6690 C.ar      1 K5N        -0.0548
     11 C28        17.8500  -11.5100    8.6000 C.ar      1 K5N        -0.0622
     12 C27        16.8880  -12.4990    8.7920 C.ar      1 K5N        -0.0626
     13 C29        16.6970  -13.4850    7.8290 C.ar      1 K5N        -0.0622
     14 C30        18.6010  -11.5020    7.4330 C.ar      1 K5N        -0.0548
     15 C3         21.4610   -6.9140    1.6520 C.ar      1 K5N        -0.0484
     16 C2         22.1550   -7.8680    2.3790 C.ar      1 K5N        -0.0522
     17 C19        20.2470  -11.5720    4.8460 C.2       1 K5N        -0.0169
     18 C25        18.4190  -12.4990    6.4650 C.ar      1 K5N        -0.0120
     19 C18        20.7720  -12.0550    3.6580 C.2       1 K5N         0.1606
     20 C11        20.8280   -5.8940   -0.5580 C.2       1 K5N         0.2196
     21 C23        21.8170  -11.4260    2.8200 C.2       1 K5N         0.2352
     22 C14        20.7630   -3.4920   -2.7580 C.3       1 K5N         0.0779
     23 N21        19.2440  -13.4630    4.3270 N.2       1 K5N        -0.1992
     24 N17        20.0950  -13.2220    3.3950 N.pl3     1 K5N        -0.1915
     25 N9         22.7000  -10.5510    3.3590 N.am      1 K5N        -0.2695
     26 O12        20.3630   -4.8940   -0.0320 O.2       1 K5N        -0.3862
     27 O24        21.8810  -11.6990    1.6340 O.2       1 K5N        -0.3821
     28 O15        19.9950   -5.6200   -4.1930 O.2       1 K5N        -0.1511
     29 O16        18.5970   -4.9670   -2.2620 O.2       1 K5N        -0.1511
     30 S13        19.8770   -5.0680   -2.8860 S.o2      1 K5N         0.0581
     31 H1         21.0921   -6.9346   -2.2839 H         1 K5N         0.2133
     32 H2         22.4806   -7.8298   -1.4647 H         1 K5N         0.0652
     33 H3         23.6770   -9.5425   -0.1534 H         1 K5N         0.0570
     34 H4         24.1913  -10.5822    1.8587 H         1 K5N         0.0726
     35 H5         25.2939   -9.9409    3.9940 H         1 K5N         0.0275
     36 H6         24.2593   -8.4759    4.0942 H         1 K5N         0.0275
     37 H7         25.4649   -8.6353    2.7722 H         1 K5N         0.0275
     38 H8         19.6263  -14.9600    2.3065 H         1 K5N         0.0607
     39 H9         21.3537  -14.4696    2.2618 H         1 K5N         0.0607
     40 H10        20.1340  -13.5492    1.3174 H         1 K5N         0.0607
     41 H11        17.3334  -14.2915    5.9342 H         1 K5N         0.0615
     42 H12        18.0110  -10.7514    9.3574 H         1 K5N         0.0615
     43 H13        16.2867  -12.5005    9.6939 H         1 K5N         0.0610
     44 H14        15.9398  -14.2453    7.9832 H         1 K5N         0.0615
     45 H15        19.3331  -10.7196    7.2691 H         1 K5N         0.0615
     46 H16        20.8371   -6.1884    2.1613 H         1 K5N         0.0652
     47 H17        22.0656   -7.8872    3.4591 H         1 K5N         0.0570
     48 H18        20.5320  -10.6622    5.3722 H         1 K5N         0.0447
     49 H19        20.2757   -2.7442   -3.4008 H         1 K5N         0.0486
     50 H20        21.8053   -3.6300   -3.0813 H         1 K5N         0.0486
     51 H21        20.7457   -3.1453   -1.7142 H         1 K5N         0.0486
     52 H22        22.6689  -10.3686    4.3417 H         1 K5N         0.1875
@<TRIPOS>BOND
     1   20    1 am 
     2    1   30 am 
     3    3    2 ar 
     4   15    2 ar 
     5    2   20 1  
     6    4    3 ar 
     7    5    4 ar 
     8    6    5 1  
     9    5   16 ar 
    10    6    7 1  
    11   25    6 1  
    12   17    8 1  
    13    8   18 1  
    14    8   23 2  
    15   24    9 1  
    16   10   13 ar 
    17   18   10 ar 
    18   11   12 ar 
    19   14   11 ar 
    20   13   12 ar 
    21   18   14 ar 
    22   16   15 ar 
    23   19   17 2  
    24   21   19 1  
    25   19   24 1  
    26   20   26 2  
    27   21   25 am 
    28   21   27 2  
    29   30   22 1  
    30   23   24 1  
    31   30   28 2  
    32   30   29 2  
    33    1   31 1  
    34    3   32 1  
    35    4   33 1  
    36    6   34 1  
    37    7   35 1  
    38    7   36 1  
    39    7   37 1  
    40    9   38 1  
    41    9   39 1  
    42    9   40 1  
    43   10   41 1  
    44   11   42 1  
    45   12   43 1  
    46   13   44 1  
    47   14   45 1  
    48   15   46 1  
    49   16   47 1  
    50   17   48 1  
    51   22   49 1  
    52   22   50 1  
    53   22   51 1  
    54   25   52 1  
@<TRIPOS>SUBSTRUCTURE
     1 K5N         1

