### 
### Created by X-TOOL on Mon Aug  2 16:16:47 2021
### 

@<TRIPOS>MOLECULE
6rj6_ligand
   51    53     1     0     0
SMALL
GAST_HUCK


@<TRIPOS>ATOM
      1 C4         16.2440  -13.1340    1.5730 C.ar      1 K5K         0.0414
      2 C5         17.0970  -12.9420    0.4820 C.ar      1 K5K        -0.0082
      3 C6         17.0550  -13.9400   -0.5080 C.ar      1 K5K         0.0637
      4 C8         18.6350  -12.4470   -1.1210 C.2       1 K5K         0.1312
      5 C10        19.6780  -11.8100   -1.9890 C.2       1 K5K         0.2267
      6 N12        20.6210  -11.0990   -1.3370 N.am      1 K5K        -0.2689
      7 C15        18.2330  -14.4400   -2.6880 C.3       1 K5K         0.0400
      8 C17        22.5050   -9.6060   -0.9280 C.3       1 K5K         0.0767
      9 C20        19.0080   -7.4210   -2.7770 C.ar      1 K5K        -0.0435
     10 C21        19.3400   -7.1230   -4.0890 C.ar      1 K5K         0.0830
     11 C22        20.3670   -7.8010   -4.7290 C.ar      1 K5K        -0.0435
     12 C1         15.3810  -14.2250    1.6770 C.ar      1 K5K         0.0421
     13 C14        14.4200  -16.3870    0.7230 C.3       1 K5K        -0.0345
     14 C16        21.5390  -10.1520   -1.9700 C.3       1 K5K         0.0979
     15 C18        20.7950   -9.0480   -2.7010 C.ar      1 K5K        -0.0158
     16 C19        19.7370   -8.3780   -2.0940 C.ar      1 K5K        -0.0563
     17 C2         15.3370  -15.1920    0.6640 C.ar      1 K5K        -0.0427
     18 C23        21.0820   -8.7620   -4.0310 C.ar      1 K5K        -0.0563
     19 C27        19.2170   -4.3650   -4.7530 C.3       1 K5K         0.1221
     20 C29        20.1080   -4.2730   -3.5260 C.2       1 K5K         0.0562
     21 C3         16.2000  -15.0370   -0.4180 C.ar      1 K5K        -0.0390
     22 C9         18.0990  -12.0050    0.0690 C.2       1 K5K        -0.0424
     23 N7         17.9870  -13.6260   -1.4980 N.pl3     1 K5K        -0.2586
     24 O11        19.6370  -11.9010   -3.2180 O.2       1 K5K        -0.3854
     25 O25        23.3280  -10.6370   -0.4070 O.3       1 K5K        -0.3907
     26 O26        17.0950   -5.8370   -4.3640 O.2       1 K5K        -0.1685
     27 O28        18.4520   -6.2590   -6.3790 O.2       1 K5K        -0.1685
     28 O30        19.5500   -4.2670   -2.4050 O.co2     1 K5K        -0.5673
     29 O31        21.3440   -4.1850   -3.7110 O.co2     1 K5K        -0.5673
     30 S24        18.3880   -5.9340   -4.9800 S.o2      1 K5K         0.0055
     31 CL1        16.2950  -11.9610    2.8340 Cl        1 K5K        -0.0761
     32 CL2        14.3350  -14.3840    3.0400 Cl        1 K5K        -0.0847
     33 H1         20.6982  -11.2288   -0.3485 H         1 K5K         0.1871
     34 H2         17.5523  -15.3041   -2.6883 H         1 K5K         0.0561
     35 H3         19.2745  -14.7938   -2.6814 H         1 K5K         0.0561
     36 H4         18.0572  -13.8344   -3.5893 H         1 K5K         0.0561
     37 H5         21.9299   -9.1550   -0.1059 H         1 K5K         0.0603
     38 H6         23.1411   -8.8392   -1.3942 H         1 K5K         0.0603
     39 H7         18.1853   -6.9093   -2.2908 H         1 K5K         0.0618
     40 H8         20.6077   -7.5820   -5.7630 H         1 K5K         0.0618
     41 H9         14.5609  -17.0021   -0.1780 H         1 K5K         0.0384
     42 H10        13.3756  -16.0456    0.7742 H         1 K5K         0.0384
     43 H11        14.6544  -16.9854    1.6157 H         1 K5K         0.0384
     44 H12        22.1281  -10.7017   -2.7189 H         1 K5K         0.0742
     45 H13        19.4794   -8.6103   -1.0670 H         1 K5K         0.0558
     46 H14        21.8791   -9.3001   -4.5311 H         1 K5K         0.0558
     47 H15        19.8400   -4.1784   -5.6402 H         1 K5K         0.0672
     48 H16        18.4478   -3.5826   -4.6739 H         1 K5K         0.0672
     49 H17        16.2069  -15.7830   -1.2044 H         1 K5K         0.0478
     50 H18        18.3870  -11.1006    0.6028 H         1 K5K         0.0392
     51 H19        22.7832  -11.3003    0.0002 H         1 K5K         0.2097
@<TRIPOS>BOND
     1    2    1 ar 
     2    1   12 ar 
     3    1   31 1  
     4    3    2 ar 
     5   22    2 1  
     6    3   21 ar 
     7   23    3 1  
     8    5    4 1  
     9    4   22 2  
    10    4   23 1  
    11    6    5 am 
    12    5   24 2  
    13   14    6 1  
    14   23    7 1  
    15   14    8 1  
    16    8   25 1  
    17   10    9 ar 
    18    9   16 ar 
    19   10   11 ar 
    20   30   10 1  
    21   11   18 ar 
    22   17   12 ar 
    23   12   32 1  
    24   17   13 1  
    25   15   14 1  
    26   16   15 ar 
    27   18   15 ar 
    28   21   17 ar 
    29   19   20 1  
    30   19   30 1  
    31   20   28 ar 
    32   20   29 ar 
    33   30   26 2  
    34   30   27 2  
    35    6   33 1  
    36    7   34 1  
    37    7   35 1  
    38    7   36 1  
    39    8   37 1  
    40    8   38 1  
    41    9   39 1  
    42   11   40 1  
    43   13   41 1  
    44   13   42 1  
    45   13   43 1  
    46   14   44 1  
    47   16   45 1  
    48   18   46 1  
    49   19   47 1  
    50   19   48 1  
    51   21   49 1  
    52   22   50 1  
    53   25   51 1  
@<TRIPOS>SUBSTRUCTURE
     1 K5K         1

