### 
### Created by X-TOOL on Mon Aug  2 16:16:47 2021
### 

@<TRIPOS>MOLECULE
6rln_ligand
   46    49     1     0     0
SMALL
GAST_HUCK


@<TRIPOS>ATOM
      1 C10         7.4530  -10.5810    1.7140 C.3       1 K8K         0.1376
      2 C13         8.3610   -8.6580   -0.2110 C.ar      1 K8K        -0.0236
      3 C21         3.5970  -14.1300    4.5660 C.2       1 K8K         0.0940
      4 C22         2.3500  -14.7720    5.0440 C.3       1 K8K         0.0339
      5 C24         0.9930  -13.1060    6.3720 C.ar      1 K8K        -0.0583
      6 C26        -0.9650  -12.0580    5.4670 C.ar      1 K8K        -0.0685
      7 C28         0.2960  -13.6150    4.1440 C.ar      1 K8K        -0.0583
      8 N19         5.6960  -13.4730    4.3480 N.pl3     1 K8K        -0.1862
      9 N20         4.8110  -14.2560    5.0950 N.2       1 K8K        -0.1933
     10 C18         4.9790  -12.8890    3.3950 C.2       1 K8K         0.2357
     11 C11         7.1190   -9.1140    2.0210 C.3       1 K8K        -0.0044
     12 F01         7.9760   -8.0280   -3.7310 F         1 K8K        -0.1989
     13 C16         5.4960  -11.9550    2.3410 C.2       1 K8K         0.2658
     14 F05        10.6550  -11.1680   -1.5310 F         1 K8K        -0.1969
     15 C25        -0.0740  -12.2300    6.5070 C.ar      1 K8K        -0.0682
     16 N07         9.7380  -10.3820    0.8870 N.am      1 K8K        -0.2369
     17 C27        -0.7780  -12.7480    4.2830 C.ar      1 K8K        -0.0682
     18 C06         9.3950   -9.6140   -0.2510 C.ar      1 K8K         0.0987
     19 C12         7.8430   -8.1190    1.1100 C.3       1 K8K        -0.0205
     20 C04         9.7650  -10.1490   -1.4780 C.ar      1 K8K         0.1440
     21 C03         9.3350   -9.6040   -2.6670 C.ar      1 K8K        -0.0150
     22 O09         9.3620  -11.5810    2.7770 O.2       1 K8K        -0.3842
     23 C14         7.9240   -8.0770   -1.4040 C.ar      1 K8K        -0.0437
     24 C02         8.4280   -8.5720   -2.5830 C.ar      1 K8K         0.1079
     25 N15         6.7290  -11.4870    2.5880 N.am      1 K8K        -0.2576
     26 O17         4.8170  -11.6690    1.3510 O.2       1 K8K        -0.3687
     27 N29         3.6950  -13.2900    3.5230 N.2       1 K8K        -0.2612
     28 C23         1.1890  -13.8150    5.1910 C.ar      1 K8K        -0.0303
     29 C08         8.9380  -10.8920    1.8510 C.2       1 K8K         0.2257
     30 H1          7.1521  -10.7802    0.6749 H         1 K8K         0.0806
     31 H2          2.5490  -15.2291    6.0245 H         1 K8K         0.0599
     32 H3          2.0654  -15.5548    4.3255 H         1 K8K         0.0599
     33 H4          1.6830  -13.2399    7.1972 H         1 K8K         0.0560
     34 H5         -1.8076  -11.3851    5.5777 H         1 K8K         0.0561
     35 H6          0.4408  -14.1427    3.2083 H         1 K8K         0.0560
     36 H7          6.7085  -13.3692    4.5062 H         1 K8K         0.2595
     37 H8          7.4032   -8.9028    3.0625 H         1 K8K         0.0331
     38 H9          6.0350   -8.9712    1.9005 H         1 K8K         0.0331
     39 H10        -0.2083  -11.6794    7.4311 H         1 K8K         0.0600
     40 H11        10.7132  -10.5757    0.9940 H         1 K8K         0.2210
     41 H12        -1.4722  -12.6110    3.4618 H         1 K8K         0.0600
     42 H13         7.1419   -7.3018    0.8849 H         1 K8K         0.0397
     43 H14         8.7032   -7.7208    1.6681 H         1 K8K         0.0397
     44 H15         9.6932   -9.9697   -3.6225 H         1 K8K         0.0495
     45 H16         7.2099   -7.2615   -1.3999 H         1 K8K         0.0471
     46 H17         7.1797  -11.7819    3.4306 H         1 K8K         0.1884
@<TRIPOS>BOND
     1    1   11 1  
     2    1   25 1  
     3   29    1 1  
     4   18    2 ar 
     5    2   19 1  
     6    2   23 ar 
     7    3    4 1  
     8    3    9 2  
     9   27    3 1  
    10    4   28 1  
    11    5   15 ar 
    12   28    5 ar 
    13   15    6 ar 
    14   17    6 ar 
    15    7   17 ar 
    16   28    7 ar 
    17    8    9 1  
    18   10    8 1  
    19   13   10 1  
    20   10   27 2  
    21   19   11 1  
    22   24   12 1  
    23   25   13 am 
    24   13   26 2  
    25   20   14 1  
    26   18   16 1  
    27   16   29 am 
    28   20   18 ar 
    29   21   20 ar 
    30   21   24 ar 
    31   29   22 2  
    32   23   24 ar 
    33    1   30 1  
    34    4   31 1  
    35    4   32 1  
    36    5   33 1  
    37    6   34 1  
    38    7   35 1  
    39    8   36 1  
    40   11   37 1  
    41   11   38 1  
    42   15   39 1  
    43   16   40 1  
    44   17   41 1  
    45   19   42 1  
    46   19   43 1  
    47   21   44 1  
    48   23   45 1  
    49   25   46 1  
@<TRIPOS>SUBSTRUCTURE
     1 K8K         1

