### 
### Created by X-TOOL on Mon Aug  2 16:16:48 2021
### 

@<TRIPOS>MOLECULE
6rna_ligand
   53    56     1     0     0
SMALL
GAST_HUCK


@<TRIPOS>ATOM
      1 C1        -41.3720   42.6350   -4.0510 C.3       1 KA2        -0.0402
      2 C2        -40.2430   42.4790   -3.0740 C.3       1 KA2         0.0836
      3 C3        -40.8130   41.9660   -1.7660 C.3       1 KA2        -0.0402
      4 C4        -39.5900   43.8310   -2.8600 C.3       1 KA2        -0.0402
      5 S5        -38.9750   41.3440   -3.7440 S.o2      1 KA2         0.0032
      6 O6        -37.9860   41.1140   -2.7170 O.2       1 KA2        -0.1699
      7 O7        -38.5360   41.8120   -5.0400 O.2       1 KA2        -0.1699
      8 C8        -39.7150   39.7410   -3.9870 C.ar      1 KA2         0.1283
      9 C9        -39.5790   38.8680   -2.9410 C.ar      1 KA2        -0.0182
     10 C10       -40.0580   37.5400   -3.0590 C.ar      1 KA2         0.0514
     11 C11       -39.9830   36.5170   -2.0420 C.ar      1 KA2         0.1558
     12 N12       -39.3610   36.8040   -0.8620 N.pl3     1 KA2        -0.2503
     13 C13       -39.1030   35.8870    0.1590 C.ar      1 KA2         0.0604
     14 C14       -38.3000   34.7880   -0.0840 C.ar      1 KA2        -0.0430
     15 C15       -38.1060   33.8510    0.8970 C.ar      1 KA2        -0.0538
     16 C16       -38.7100   34.0560    2.1160 C.ar      1 KA2         0.0480
     17 S17       -38.6080   33.0400    3.5150 S.3       1 KA2        -0.0042
     18 C18       -39.6600   34.1280    4.3290 C.2       1 KA2         0.0788
     19 N19       -40.0290   35.1720    3.6730 N.2       1 KA2        -0.2966
     20 C20       -39.4990   35.1690    2.4010 C.ar      1 KA2         0.0284
     21 C21       -39.7050   36.0880    1.3860 C.ar      1 KA2        -0.0298
     22 N22       -40.5120   35.2940   -2.2390 N.ar      1 KA2        -0.2562
     23 C23       -41.0800   35.0600   -3.4250 C.ar      1 KA2         0.0564
     24 N24       -41.1910   35.8890   -4.4650 N.ar      1 KA2        -0.3003
     25 C25       -40.6910   37.1450   -4.2720 C.ar      1 KA2         0.0338
     26 C26       -40.8330   38.0880   -5.3090 C.ar      1 KA2        -0.0130
     27 C27       -40.3300   39.3670   -5.1860 C.ar      1 KA2         0.1234
     28 O28       -40.4150   40.3030   -6.2050 O.3       1 KA2        -0.3087
     29 C29       -40.5230   39.9160   -7.5700 C.3       1 KA2         0.0955
     30 C30       -41.6000   40.7600   -8.1930 C.3       1 KA2         0.0722
     31 O31       -41.2580   42.1230   -7.9840 O.3       1 KA2        -0.3923
     32 H1        -42.1255   43.3195   -3.6343 H         1 KA2         0.0251
     33 H2        -41.8323   41.6538   -4.2392 H         1 KA2         0.0251
     34 H3        -40.9856   43.0460   -4.9953 H         1 KA2         0.0251
     35 H4        -41.5700   42.6721   -1.3940 H         1 KA2         0.0251
     36 H5        -40.0048   41.8714   -1.0258 H         1 KA2         0.0251
     37 H6        -41.2778   40.9825   -1.9292 H         1 KA2         0.0251
     38 H7        -40.3312   44.5364   -2.4562 H         1 KA2         0.0251
     39 H8        -39.2081   44.2098   -3.8195 H         1 KA2         0.0251
     40 H9        -38.7571   43.7275   -2.1490 H         1 KA2         0.0251
     41 H10       -39.1046   39.1932   -2.0222 H         1 KA2         0.0693
     42 H11       -39.0569   37.7766   -0.7121 H         1 KA2         0.2209
     43 H12       -37.8239   34.6676   -1.0504 H         1 KA2         0.0514
     44 H13       -37.4946   32.9740    0.7178 H         1 KA2         0.0552
     45 H14       -39.9972   33.9435    5.3479 H         1 KA2         0.1256
     46 H15       -40.3322   36.9563    1.5525 H         1 KA2         0.0493
     47 H16       -41.5045   34.0717   -3.5599 H         1 KA2         0.1050
     48 H17       -41.3468   37.8036   -6.2202 H         1 KA2         0.0508
     49 H18       -40.7925   38.8518   -7.6389 H         1 KA2         0.0641
     50 H19       -39.5665   40.0862   -8.0858 H         1 KA2         0.0641
     51 H20       -42.5684   40.5403   -7.7199 H         1 KA2         0.0584
     52 H21       -41.6628   40.5509   -9.2711 H         1 KA2         0.0584
     53 H22       -41.2017   42.2948   -7.0514 H         1 KA2         0.2095
@<TRIPOS>BOND
     1    1    2 1  
     2    2    3 1  
     3    2    4 1  
     4    2    5 1  
     5    5    6 2  
     6    5    7 2  
     7    5    8 1  
     8    8    9 ar 
     9    8   27 ar 
    10    9   10 ar 
    11   10   11 ar 
    12   10   25 ar 
    13   11   12 1  
    14   11   22 ar 
    15   12   13 1  
    16   13   14 ar 
    17   13   21 ar 
    18   14   15 ar 
    19   15   16 ar 
    20   16   17 1  
    21   16   20 ar 
    22   17   18 1  
    23   18   19 2  
    24   19   20 1  
    25   20   21 ar 
    26   22   23 ar 
    27   23   24 ar 
    28   24   25 ar 
    29   25   26 ar 
    30   26   27 ar 
    31   27   28 1  
    32   28   29 1  
    33   29   30 1  
    34   30   31 1  
    35    1   32 1  
    36    1   33 1  
    37    1   34 1  
    38    3   35 1  
    39    3   36 1  
    40    3   37 1  
    41    4   38 1  
    42    4   39 1  
    43    4   40 1  
    44    9   41 1  
    45   12   42 1  
    46   14   43 1  
    47   15   44 1  
    48   18   45 1  
    49   21   46 1  
    50   23   47 1  
    51   26   48 1  
    52   29   49 1  
    53   29   50 1  
    54   30   51 1  
    55   30   52 1  
    56   31   53 1  
@<TRIPOS>SUBSTRUCTURE
     1 KA2         1

