### 
### Created by X-TOOL on Mon Aug  2 16:10:22 2021
### 

@<TRIPOS>MOLECULE
6rnu_ligand
   27    28     1     0     0
SMALL
GAST_HUCK


@<TRIPOS>ATOM
      1 C1         35.6180   12.8300  -15.7820 C.ar      1 KBH         0.0111
      2 C2         35.1890   12.0570  -16.8500 C.ar      1 KBH        -0.0478
      3 C3         33.8530   12.0260  -17.2040 C.ar      1 KBH        -0.0499
      4 C7         29.3930   11.3340  -16.9860 C.ar      1 KBH        -0.0267
      5 C8         28.8550   12.3240  -17.7720 C.ar      1 KBH         0.1336
      6 C9         29.5600   13.4210  -18.1740 C.ar      1 KBH        -0.0267
      7 C10        30.8690   13.5480  -17.7500 C.ar      1 KBH        -0.0548
      8 C11        33.3330   13.5220  -15.4100 C.ar      1 KBH         0.0952
      9 C12        34.6770   13.5500  -15.0520 C.ar      1 KBH        -0.0233
     10 F          27.5710   12.2010  -18.1770 F         1 KBH        -0.1824
     11 C6         30.7130   11.4590  -16.5930 C.ar      1 KBH        -0.0548
     12 C5         31.4640   12.5860  -16.9340 C.ar      1 KBH        -0.0182
     13 C4         32.8790   12.7310  -16.4860 C.ar      1 KBH         0.0065
     14 C          37.0630   12.8850  -15.4150 C.2       1 KBH         0.0623
     15 O          37.3220   13.6270  -14.3770 O.co2     1 KBH        -0.5609
     16 O1         37.9220   12.2590  -16.0360 O.co2     1 KBH        -0.5609
     17 S          32.2560   14.5040  -14.3810 S.o2      1 KBH        -0.0124
     18 O3         31.0420   14.7970  -15.0650 O.2       1 KBH        -0.1721
     19 O2         33.0080   15.5900  -13.8520 O.2       1 KBH        -0.1721
     20 H1         35.9075   11.4718  -17.4124 H         1 KBH         0.0649
     21 H2         33.5503   11.4384  -18.0631 H         1 KBH         0.0624
     22 H3         28.7996   10.4791  -16.6825 H         1 KBH         0.0607
     23 H4         29.1053   14.1727  -18.8090 H         1 KBH         0.0607
     24 H5         31.4452   14.4130  -18.0579 H         1 KBH         0.0619
     25 H6         34.9938   14.1373  -14.1977 H         1 KBH         0.0668
     26 H7         31.1726   10.6688  -16.0104 H         1 KBH         0.0619
     27 H8         31.9917   13.9376  -13.5902 H         1 KBH         0.2152
@<TRIPOS>BOND
     1    2    1 ar 
     2    9    1 ar 
     3    1   14 1  
     4    3    2 ar 
     5   13    3 ar 
     6    4    5 ar 
     7   11    4 ar 
     8    6    5 ar 
     9    5   10 1  
    10    7    6 ar 
    11   12    7 ar 
    12    8    9 ar 
    13   13    8 ar 
    14    8   17 1  
    15   12   11 ar 
    16   12   13 1  
    17   14   15 ar 
    18   14   16 ar 
    19   17   18 2  
    20   17   19 2  
    21    2   20 1  
    22    3   21 1  
    23    4   22 1  
    24    6   23 1  
    25    7   24 1  
    26    9   25 1  
    27   11   26 1  
    28   17   27 1  
@<TRIPOS>SUBSTRUCTURE
     1 KBH         1

