### 
### Created by X-TOOL on Mon Aug  2 16:11:49 2021
### 

@<TRIPOS>MOLECULE
6rot_ligand
   58    60     1     0     0
SMALL
GAST_HUCK


@<TRIPOS>ATOM
      1 C3         13.1730   -9.0040   22.4760 C.ar      1 KDQ        -0.0510
      2 C5         11.4820  -10.0430   23.8240 C.ar      1 KDQ        -0.0615
      3 C6         11.5550  -11.1690   23.0280 C.ar      1 KDQ        -0.0640
      4 C21        20.8910  -15.3680   25.2860 C.ar      1 KDQ        -0.0587
      5 C9         17.7390  -11.3690   20.8310 C.3       1 KDQ         0.1337
      6 C10        18.5940  -11.2770   19.5620 C.3       1 KDQ        -0.0104
      7 C11        19.8650  -12.0360   19.9240 C.3       1 KDQ        -0.0281
      8 C8         12.4390  -12.4610   21.0680 C.3       1 KDQ         0.0760
      9 C2         13.2430  -10.1300   21.6600 C.ar      1 KDQ        -0.0162
     10 C7         12.4220  -11.2330   21.9400 C.ar      1 KDQ        -0.0135
     11 C16        19.7400  -14.8680   25.8800 C.ar      1 KDQ        -0.0204
     12 C15        18.5910  -15.7800   26.2180 C.3       1 KDQ         0.1180
     13 C13        17.5210  -13.1900   22.4590 C.2       1 KDQ         0.1994
     14 C12        19.3880  -13.1750   20.7920 C.3       1 KDQ         0.0369
     15 N1         18.1760  -12.6330   21.4300 N.am      1 KDQ        -0.2504
     16 C20        21.8990  -14.5130   24.8680 C.ar      1 KDQ        -0.0685
     17 C19        21.7720  -13.1510   25.0450 C.ar      1 KDQ        -0.0687
     18 C18        20.6450  -12.6440   25.6590 C.ar      1 KDQ        -0.0685
     19 C17        19.6370  -13.4970   26.0790 C.ar      1 KDQ        -0.0587
     20 O4         18.5970  -17.0700   23.9440 O.2       1 KDQ        -0.1532
     21 S          17.6870  -16.3550   24.7870 S.o2      1 KDQ         0.0508
     22 O3         16.4940  -17.0060   25.2350 O.2       1 KDQ        -0.1532
     23 N2         17.2020  -15.0350   23.9480 N.am      1 KDQ        -0.2311
     24 C14        18.1280  -14.4480   22.9920 C.3       1 KDQ         0.1157
     25 O2         16.4880  -12.7140   22.9240 O.2       1 KDQ        -0.3949
     26 C          16.2490  -11.4090   20.5020 C.2       1 KDQ         0.2035
     27 O          15.7450  -12.4020   19.9730 O.2       1 KDQ        -0.3944
     28 N          15.5590  -10.3020   20.7910 N.am      1 KDQ        -0.2749
     29 C1         14.1500  -10.1470   20.4520 C.3       1 KDQ         0.0623
     30 O1         13.2730  -13.4600   21.5930 O.3       1 KDQ        -0.3837
     31 C4         12.2980   -8.9760   23.5390 C.ar      1 KDQ         0.0264
     32 CL         12.2430   -7.5630   24.5490 Cl        1 KDQ        -0.0789
     33 H1         13.8078   -8.1487   22.2744 H         1 KDQ         0.0543
     34 H2         10.7924  -10.0021   24.6594 H         1 KDQ         0.0548
     35 H3         10.9243  -12.0209   23.2547 H         1 KDQ         0.0539
     36 H4         21.0025  -16.4373   25.1477 H         1 KDQ         0.0557
     37 H5         17.9413  -10.5221   21.5032 H         1 KDQ         0.0802
     38 H6         18.8200  -10.2288   19.3169 H         1 KDQ         0.0313
     39 H7         18.0838  -11.7509   18.7105 H         1 KDQ         0.0313
     40 H8         20.5602  -11.3887   20.4787 H         1 KDQ         0.0287
     41 H9         20.3615  -12.4175   19.0196 H         1 KDQ         0.0287
     42 H10        12.8025  -12.1828   20.0678 H         1 KDQ         0.0707
     43 H11        11.4155  -12.8564   20.9893 H         1 KDQ         0.0707
     44 H12        17.8952  -15.2345   26.8724 H         1 KDQ         0.0682
     45 H13        18.9878  -16.6553   26.7531 H         1 KDQ         0.0682
     46 H14        20.1447  -13.4395   21.5453 H         1 KDQ         0.0524
     47 H15        19.1505  -14.0605   20.1842 H         1 KDQ         0.0524
     48 H16        22.7900  -14.9162   24.4005 H         1 KDQ         0.0599
     49 H17        22.5537  -12.4821   24.7034 H         1 KDQ         0.0559
     50 H18        20.5480  -11.5754   25.8132 H         1 KDQ         0.0599
     51 H19        18.7591  -13.0903   26.5678 H         1 KDQ         0.0557
     52 H20        16.2930  -14.6427   24.0892 H         1 KDQ         0.1700
     53 H21        19.0811  -14.2184   23.4909 H         1 KDQ         0.0717
     54 H22        18.3066  -15.1531   22.1668 H         1 KDQ         0.0717
     55 H23        16.0270   -9.5514   21.2575 H         1 KDQ         0.1876
     56 H24        14.0241   -9.1995   19.9075 H         1 KDQ         0.0668
     57 H25        13.8527  -10.9846   19.8039 H         1 KDQ         0.0668
     58 H26        12.9621  -13.7096   22.4553 H         1 KDQ         0.2124
@<TRIPOS>BOND
     1    9    1 ar 
     2    1   31 ar 
     3    3    2 ar 
     4   31    2 ar 
     5   10    3 ar 
     6   11    4 ar 
     7    4   16 ar 
     8    5    6 1  
     9    5   15 1  
    10   26    5 1  
    11    6    7 1  
    12   14    7 1  
    13   10    8 1  
    14    8   30 1  
    15    9   10 ar 
    16   29    9 1  
    17   12   11 1  
    18   11   19 ar 
    19   21   12 1  
    20   15   13 am 
    21   13   24 1  
    22   13   25 2  
    23   15   14 1  
    24   16   17 ar 
    25   18   17 ar 
    26   19   18 ar 
    27   21   20 2  
    28   21   22 2  
    29   23   21 am 
    30   24   23 1  
    31   26   27 2  
    32   28   26 am 
    33   28   29 1  
    34   31   32 1  
    35    1   33 1  
    36    2   34 1  
    37    3   35 1  
    38    4   36 1  
    39    5   37 1  
    40    6   38 1  
    41    6   39 1  
    42    7   40 1  
    43    7   41 1  
    44    8   42 1  
    45    8   43 1  
    46   12   44 1  
    47   12   45 1  
    48   14   46 1  
    49   14   47 1  
    50   16   48 1  
    51   17   49 1  
    52   18   50 1  
    53   19   51 1  
    54   23   52 1  
    55   24   53 1  
    56   24   54 1  
    57   28   55 1  
    58   29   56 1  
    59   29   57 1  
    60   30   58 1  
@<TRIPOS>SUBSTRUCTURE
     1 KDQ         1

