### 
### Created by X-TOOL on Mon Aug  2 16:12:07 2021
### 

@<TRIPOS>MOLECULE
6rz6_ligand
   69    72     1     0     0
SMALL
GAST_HUCK


@<TRIPOS>ATOM
      1 C4        -18.7560   18.8300  -19.5880 C.3       1 KNW         0.0258
      2 C14       -25.4500   13.5890  -19.8510 C.ar      1 KNW         0.0439
      3 C5        -17.8020   17.8950  -18.8610 C.3       1 KNW        -0.0221
      4 C6        -16.6110   18.6270  -18.2660 C.3       1 KNW         0.0020
      5 C11       -23.0140   16.7430  -17.7810 C.ar      1 KNW        -0.0618
      6 C7        -15.7760   19.3370  -19.3120 C.2       1 KNW         0.0349
      7 C8        -20.9500   17.7060  -19.3780 C.ar      1 KNW         0.0573
      8 C9        -21.1070   18.1480  -18.0600 C.ar      1 KNW        -0.0671
      9 C10       -22.1360   17.6750  -17.2820 C.ar      1 KNW        -0.0970
     10 C12       -22.8640   16.2620  -19.0700 C.ar      1 KNW         0.0842
     11 C13       -24.8010   14.6620  -19.0360 C.2       1 KNW         0.2210
     12 N1        -19.9080   18.1250  -20.1720 N.pl3     1 KNW        -0.3109
     13 N2        -23.7480   15.2930  -19.6140 N.am      1 KNW        -0.2407
     14 C3        -19.8270   17.7580  -21.5870 C.3       1 KNW         0.0656
     15 C1        -21.1490   17.1690  -22.0750 C.3       1 KNW         0.1455
     16 C15       -24.9770   13.1730  -21.0930 C.ar      1 KNW        -0.0500
     17 C16       -25.6160   12.1700  -21.7980 C.ar      1 KNW        -0.0269
     18 C17       -26.7590   11.5810  -21.2700 C.ar      1 KNW         0.0966
     19 C18       -26.8650    9.9360  -23.0370 C.3       1 KNW         0.0718
     20 C19       -27.8000    8.8400  -23.4890 C.3       1 KNW        -0.0231
     21 C2        -20.9680   16.4220  -23.3860 C.2       1 KNW         0.0694
     22 C20       -28.1260    7.8080  -22.4110 C.3       1 KNW        -0.0408
     23 C21       -29.1090    6.7440  -22.8860 C.3       1 KNW        -0.0194
     24 C22       -29.4930    5.8330  -21.7520 C.ar      1 KNW        -0.0308
     25 C23       -28.7830    4.6690  -21.4530 C.ar      1 KNW        -0.0263
     26 C24       -29.2010    3.8740  -20.4080 C.ar      1 KNW         0.1262
     27 C25       -30.3010    4.1590  -19.6540 C.ar      1 KNW        -0.0346
     28 C26       -31.0110    5.3050  -19.9380 C.ar      1 KNW        -0.0564
     29 C27       -30.6170    6.1170  -20.9820 C.ar      1 KNW         0.0369
     30 C28       -27.2380   11.9870  -20.0350 C.ar      1 KNW        -0.0269
     31 C29       -26.5880   12.9820  -19.3370 C.ar      1 KNW        -0.0500
     32 C30       -21.8300   16.7440  -19.8700 C.ar      1 KNW         0.1309
     33 F1        -28.5090    2.7420  -20.1060 F         1 KNW        -0.1850
     34 O1        -20.6160   17.0300  -24.3720 O.co2     1 KNW        -0.5660
     35 O2        -21.1690   15.2260  -23.4240 O.co2     1 KNW        -0.5660
     36 O3        -15.6960   20.5790  -19.2640 O.co2     1 KNW        -0.5690
     37 O4        -15.2270   18.6410  -20.1880 O.co2     1 KNW        -0.5690
     38 O5        -25.2160   14.9130  -17.9080 O.2       1 KNW        -0.3798
     39 O6        -27.4520   10.5810  -21.9000 O.3       1 KNW        -0.3145
     40 O7        -21.7220   16.2590  -21.1440 O.3       1 KNW        -0.3121
     41 CL1       -31.5740    7.5430  -21.2930 Cl        1 KNW        -0.0809
     42 H1        -18.2062   19.3351  -20.3959 H         1 KNW         0.0510
     43 H2        -19.1275   19.5790  -18.8732 H         1 KNW         0.0510
     44 H3        -17.4335   17.1427  -19.5739 H         1 KNW         0.0302
     45 H4        -18.3495   17.3937  -18.0492 H         1 KNW         0.0302
     46 H5        -15.9745   17.8970  -17.7444 H         1 KNW         0.0431
     47 H6        -16.9803   19.3721  -17.5460 H         1 KNW         0.0431
     48 H7        -23.8279   16.3829  -17.1621 H         1 KNW         0.0369
     49 H8        -20.4107   18.8700  -17.6489 H         1 KNW         0.0367
     50 H9        -22.2560   18.0393  -16.2681 H         1 KNW         0.0457
     51 H10       -23.5678   15.0378  -20.5639 H         1 KNW         0.2209
     52 H11       -19.0297   17.0121  -21.7203 H         1 KNW         0.0556
     53 H12       -19.5925   18.6551  -22.1787 H         1 KNW         0.0556
     54 H13       -21.8518   18.0005  -22.2319 H         1 KNW         0.0829
     55 H14       -24.0949   13.6425  -21.5131 H         1 KNW         0.0642
     56 H15       -25.2281   11.8449  -22.7566 H         1 KNW         0.0556
     57 H16       -26.7254   10.6653  -23.8485 H         1 KNW         0.0616
     58 H17       -25.8916    9.5050  -22.7599 H         1 KNW         0.0616
     59 H18       -27.3335    8.3170  -24.3368 H         1 KNW         0.0293
     60 H19       -28.7416    9.3041  -23.8176 H         1 KNW         0.0293
     61 H20       -28.5637    8.3293  -21.5469 H         1 KNW         0.0288
     62 H21       -27.1926    7.3123  -22.1060 H         1 KNW         0.0288
     63 H22       -28.6404    6.1496  -23.6842 H         1 KNW         0.0427
     64 H23       -30.0124    7.2352  -23.2767 H         1 KNW         0.0427
     65 H24       -27.9121    4.3934  -22.0366 H         1 KNW         0.0542
     66 H25       -30.6093    3.4998  -18.8506 H         1 KNW         0.0547
     67 H26       -31.8776    5.5684  -19.3425 H         1 KNW         0.0595
     68 H27       -28.1239   11.5222  -19.6177 H         1 KNW         0.0556
     69 H28       -26.9709   13.2953  -18.3725 H         1 KNW         0.0642
@<TRIPOS>BOND
     1    1    3 1  
     2   12    1 1  
     3    2   11 1  
     4   16    2 ar 
     5    2   31 ar 
     6    3    4 1  
     7    4    6 1  
     8    5    9 ar 
     9   10    5 ar 
    10    6   36 ar 
    11    6   37 ar 
    12    7    8 ar 
    13    7   12 1  
    14   32    7 ar 
    15    9    8 ar 
    16   13   10 1  
    17   10   32 ar 
    18   11   13 am 
    19   11   38 2  
    20   12   14 1  
    21   14   15 1  
    22   15   21 1  
    23   15   40 1  
    24   17   16 ar 
    25   18   17 ar 
    26   18   30 ar 
    27   39   18 1  
    28   19   20 1  
    29   19   39 1  
    30   20   22 1  
    31   21   34 ar 
    32   21   35 ar 
    33   22   23 1  
    34   23   24 1  
    35   24   25 ar 
    36   24   29 ar 
    37   25   26 ar 
    38   26   27 ar 
    39   26   33 1  
    40   27   28 ar 
    41   28   29 ar 
    42   29   41 1  
    43   30   31 ar 
    44   32   40 1  
    45    1   42 1  
    46    1   43 1  
    47    3   44 1  
    48    3   45 1  
    49    4   46 1  
    50    4   47 1  
    51    5   48 1  
    52    8   49 1  
    53    9   50 1  
    54   13   51 1  
    55   14   52 1  
    56   14   53 1  
    57   15   54 1  
    58   16   55 1  
    59   17   56 1  
    60   19   57 1  
    61   19   58 1  
    62   20   59 1  
    63   20   60 1  
    64   22   61 1  
    65   22   62 1  
    66   23   63 1  
    67   23   64 1  
    68   25   65 1  
    69   27   66 1  
    70   28   67 1  
    71   30   68 1  
    72   31   69 1  
@<TRIPOS>SUBSTRUCTURE
     1 KNW         1

