### 
### Created by X-TOOL on Mon Aug  2 16:16:49 2021
### 

@<TRIPOS>MOLECULE
6s0e_ligand
   36    36     1     0     0
SMALL
GAST_HUCK


@<TRIPOS>ATOM
      1 C1          7.0280  -23.3140   53.2450 C.2       1 DAN         0.0809
      2 C2          6.4830  -24.1130   54.3400 C.2       1 DAN         0.1088
      3 C3          5.9580  -25.3560   54.1220 C.2       1 DAN        -0.0276
      4 C4          5.2980  -26.0980   55.2540 C.3       1 DAN         0.1003
      5 C5          4.7650  -25.1340   56.3410 C.3       1 DAN         0.1064
      6 C6          5.9170  -24.2420   56.7250 C.3       1 DAN         0.1321
      7 C7          5.6500  -23.3410   57.8780 C.3       1 DAN         0.1154
      8 C8          6.8050  -22.4070   58.1670 C.3       1 DAN         0.1068
      9 C9          6.4340  -21.4850   59.3250 C.3       1 DAN         0.0727
     10 C10         3.2460  -26.1690   57.9200 C.2       1 DAN         0.1734
     11 C11         3.1200  -27.1680   59.0530 C.3       1 DAN         0.0257
     12 N5          4.4740  -25.9520   57.4700 N.am      1 DAN        -0.2770
     13 O1A         7.0190  -23.7660   52.1070 O.co2     1 DAN        -0.5623
     14 O1B         7.4220  -22.1900   53.4800 O.co2     1 DAN        -0.5623
     15 O4          4.3030  -27.0530   54.8280 O.3       1 DAN        -0.3807
     16 O6          6.3440  -23.4280   55.6160 O.3       1 DAN        -0.3189
     17 O7          4.6200  -22.4570   57.5350 O.3       1 DAN        -0.3861
     18 O8          7.9850  -23.0910   58.5140 O.3       1 DAN        -0.3869
     19 O9          7.4440  -20.4610   59.4900 O.3       1 DAN        -0.3924
     20 O10         2.2900  -25.6000   57.4350 O.2       1 DAN        -0.3974
     21 H1          6.0168  -25.8082   53.1331 H         1 DAN         0.0480
     22 H2          6.0938  -26.6885   55.7315 H         1 DAN         0.0740
     23 H3          3.8897  -24.5602   56.0026 H         1 DAN         0.0632
     24 H4          6.7505  -24.9020   57.0071 H         1 DAN         0.0697
     25 H5          5.3954  -23.9388   58.7656 H         1 DAN         0.0650
     26 H6          6.9984  -21.8039   57.2676 H         1 DAN         0.0643
     27 H7          6.3599  -22.0751   60.2504 H         1 DAN         0.0584
     28 H8          5.4647  -21.0092   59.1149 H         1 DAN         0.0584
     29 H9          2.0627  -27.2649   59.3404 H         1 DAN         0.0467
     30 H10         3.7042  -26.8183   59.9169 H         1 DAN         0.0467
     31 H11         3.5016  -28.1458   58.7239 H         1 DAN         0.0467
     32 H12         5.2370  -26.3860   57.9490 H         1 DAN         0.1858
     33 H13         4.0267  -27.5742   55.5726 H         1 DAN         0.2127
     34 H14         4.8806  -21.9480   56.7764 H         1 DAN         0.2100
     35 H15         8.6803  -22.4624   58.6684 H         1 DAN         0.2100
     36 H16         7.5080  -19.9495   58.6920 H         1 DAN         0.2095
@<TRIPOS>BOND
     1    2    1 1  
     2    1   13 ar 
     3    1   14 ar 
     4    3    2 2  
     5   16    2 1  
     6    4    3 1  
     7    5    4 1  
     8    4   15 1  
     9    5    6 1  
    10   12    5 1  
    11    6    7 1  
    12    6   16 1  
    13    7    8 1  
    14    7   17 1  
    15    8    9 1  
    16    8   18 1  
    17    9   19 1  
    18   10   11 1  
    19   10   12 am 
    20   10   20 2  
    21    3   21 1  
    22    4   22 1  
    23    5   23 1  
    24    6   24 1  
    25    7   25 1  
    26    8   26 1  
    27    9   27 1  
    28    9   28 1  
    29   11   29 1  
    30   11   30 1  
    31   11   31 1  
    32   12   32 1  
    33   15   33 1  
    34   17   34 1  
    35   18   35 1  
    36   19   36 1  
@<TRIPOS>SUBSTRUCTURE
     1 DAN         1

