### 
### Created by X-TOOL on Mon Aug  2 16:17:14 2021
### 

@<TRIPOS>MOLECULE
6s43_ligand
   62    65     1     0     0
SMALL
GAST_HUCK


@<TRIPOS>ATOM
      1 O3        170.0470  -12.9490   31.4860 O.2       1 KUE        -0.3836
      2 C4        171.9020   -7.0790   31.5960 C.3       1 KUE         0.0562
      3 C5        169.9420  -10.1510   32.0130 C.ar      1 KUE         0.0983
      4 O4        165.7120  -10.3930   33.5790 O.2       1 KUE        -0.1517
      5 C6        170.9990  -12.3580   31.9960 C.2       1 KUE         0.2123
      6 N1        172.0330  -15.4520   32.5510 N.2       1 KUE        -0.1824
      7 C7        172.2240  -13.0990   32.4690 C.3       1 KUE         0.0879
      8 C8        172.3820  -14.4430   31.8280 C.2       1 KUE         0.0742
      9 N2        172.1570  -16.7050   31.9710 N.am      1 KUE        -0.1717
     10 C9        172.5640  -17.0070   30.7340 C.2       1 KUE         0.2361
     11 C10       172.9390  -15.8660   29.8930 C.ar      1 KUE         0.0610
     12 C11       173.2550  -16.0360   28.5350 C.ar      1 KUE        -0.0440
     13 C12       173.5190  -14.9220   27.7450 C.ar      1 KUE        -0.0589
     14 N3        165.7850  -11.5380   31.3990 N.am      1 KUE        -0.2355
     15 C13       173.5000  -13.6340   28.3010 C.ar      1 KUE        -0.0598
     16 C14       173.1670  -13.4520   29.6360 C.ar      1 KUE        -0.0505
     17 C15       172.8660  -14.5740   30.4410 C.ar      1 KUE         0.0130
     18 S         165.9310  -10.1200   32.2070 S.o2      1 KUE         0.0623
     19 O         165.0960   -9.1650   31.5480 O.2       1 KUE        -0.1517
     20 C23       166.1300  -11.5630   29.9640 C.3       1 KUE         0.0295
     21 C22       165.5690  -12.7300   29.1890 C.3       1 KUE        -0.0359
     22 C21       164.0580  -12.7810   29.1580 C.3       1 KUE        -0.0516
     23 C20       163.2830  -13.2960   30.3530 C.3       1 KUE        -0.0530
     24 C19       163.9890  -14.1970   31.3340 C.3       1 KUE        -0.0516
     25 C18       164.6340  -13.4780   32.5110 C.3       1 KUE        -0.0359
     26 C17       165.9410  -12.7670   32.2120 C.3       1 KUE         0.0295
     27 C         167.6090   -9.6200   32.0090 C.ar      1 KUE         0.0837
     28 C16       168.6180  -10.5620   32.1380 C.ar      1 KUE        -0.0228
     29 C3        170.2210   -8.7920   31.7700 C.ar      1 KUE         0.1123
     30 O1        171.5530   -8.4800   31.7140 O.3       1 KUE        -0.3275
     31 C2        169.1910   -7.8820   31.6440 C.ar      1 KUE        -0.0443
     32 C1        167.8830   -8.2980   31.7490 C.ar      1 KUE        -0.0597
     33 N         171.0430  -11.0200   32.1430 N.am      1 KUE        -0.2351
     34 O2        172.5780  -18.1760   30.3360 O.2       1 KUE        -0.3937
     35 H1        172.9966   -6.9754   31.5620 H         1 KUE         0.0572
     36 H2        171.5085   -6.5288   32.4634 H         1 KUE         0.0572
     37 H3        171.4661   -6.6690   30.6731 H         1 KUE         0.0572
     38 H4        172.1509  -13.2370   33.5578 H         1 KUE         0.0661
     39 H5        173.1117  -12.4931   32.2349 H         1 KUE         0.0661
     40 H6        171.9108  -17.4812   32.5514 H         1 KUE         0.2568
     41 H7        173.2929  -17.0303   28.1048 H         1 KUE         0.0659
     42 H8        173.7411  -15.0500   26.6917 H         1 KUE         0.0609
     43 H9        173.7466  -12.7769   27.6849 H         1 KUE         0.0642
     44 H10       173.1379  -12.4544   30.0591 H         1 KUE         0.0617
     45 H11       167.2262  -11.5927   29.8779 H         1 KUE         0.0478
     46 H12       165.7512  -10.6371   29.5066 H         1 KUE         0.0478
     47 H13       165.9366  -13.6591   29.6491 H         1 KUE         0.0281
     48 H14       165.9338  -12.6644   28.1533 H         1 KUE         0.0281
     49 H15       163.7813  -13.4174   28.3045 H         1 KUE         0.0266
     50 H16       163.7113  -11.7530   28.9765 H         1 KUE         0.0266
     51 H17       162.4187  -13.8539   29.9636 H         1 KUE         0.0265
     52 H18       162.9302  -12.4182   30.9142 H         1 KUE         0.0265
     53 H19       164.7764  -14.7420   30.7927 H         1 KUE         0.0266
     54 H20       163.2543  -14.9128   31.7312 H         1 KUE         0.0266
     55 H21       164.8266  -14.2226   33.2974 H         1 KUE         0.0281
     56 H22       163.9192  -12.7290   32.8823 H         1 KUE         0.0281
     57 H23       166.4121  -12.4925   33.1674 H         1 KUE         0.0478
     58 H24       166.5961  -13.4621   31.6664 H         1 KUE         0.0478
     59 H25       168.3798  -11.6014   32.3330 H         1 KUE         0.0486
     60 H26       169.4127   -6.8367   31.4618 H         1 KUE         0.0495
     61 H27       167.0736   -7.5873   31.6274 H         1 KUE         0.0479
     62 H28       171.9286  -10.6104   32.3621 H         1 KUE         0.2224
@<TRIPOS>BOND
     1    5    1 2  
     2   30    2 1  
     3    3   28 ar 
     4   29    3 ar 
     5    3   33 1  
     6   18    4 2  
     7    5    7 1  
     8   33    5 am 
     9    8    6 2  
    10    6    9 1  
    11    7    8 1  
    12    8   17 1  
    13    9   10 am 
    14   11   10 1  
    15   10   34 2  
    16   11   12 ar 
    17   17   11 ar 
    18   12   13 ar 
    19   15   13 ar 
    20   18   14 am 
    21   14   20 1  
    22   14   26 1  
    23   16   15 ar 
    24   17   16 ar 
    25   18   19 2  
    26   27   18 1  
    27   20   21 1  
    28   21   22 1  
    29   22   23 1  
    30   24   23 1  
    31   25   24 1  
    32   26   25 1  
    33   28   27 ar 
    34   27   32 ar 
    35   29   30 1  
    36   29   31 ar 
    37   31   32 ar 
    38    2   35 1  
    39    2   36 1  
    40    2   37 1  
    41    7   38 1  
    42    7   39 1  
    43    9   40 1  
    44   12   41 1  
    45   13   42 1  
    46   15   43 1  
    47   16   44 1  
    48   20   45 1  
    49   20   46 1  
    50   21   47 1  
    51   21   48 1  
    52   22   49 1  
    53   22   50 1  
    54   23   51 1  
    55   23   52 1  
    56   24   53 1  
    57   24   54 1  
    58   25   55 1  
    59   25   56 1  
    60   26   57 1  
    61   26   58 1  
    62   28   59 1  
    63   31   60 1  
    64   32   61 1  
    65   33   62 1  
@<TRIPOS>SUBSTRUCTURE
     1 KUE         1

