### 
### Created by X-TOOL on Mon Aug  2 16:16:49 2021
### 

@<TRIPOS>MOLECULE
6s4n_ligand
   61    64     1     0     0
SMALL
GAST_HUCK


@<TRIPOS>ATOM
      1 C1         -4.7650    9.3290    1.9340 C.3       1 KUW        -0.0402
      2 C2         -3.8910    8.3150    1.1730 C.3       1 KUW         0.0628
      3 C3         -4.8150    7.4230    0.3410 C.3       1 KUW        -0.0402
      4 C7         -1.5530    7.0590    3.9040 C.2       1 KUW         0.1503
      5 C8         -2.3390    5.9600    4.1430 C.2       1 KUW         0.1410
      6 C9         -2.2450    4.8330    5.0830 C.ar      1 KUW        -0.0155
      7 C10        -2.3790    5.0270    6.4730 C.ar      1 KUW        -0.0620
      8 C11        -2.2990    3.9260    7.3180 C.ar      1 KUW        -0.0679
      9 C12        -2.1050    2.6490    6.7980 C.ar      1 KUW        -0.0677
     10 C13        -1.9840    2.4460    5.4220 C.ar      1 KUW        -0.0679
     11 C14        -2.0530    3.5400    4.5650 C.ar      1 KUW        -0.0620
     12 O17        -3.4300    5.0580    1.9950 O.2       1 KUW        -0.1492
     13 N18        -0.4010    7.4570    4.5980 N.pl3     1 KUW        -0.3040
     14 C19         0.3950    6.6230    5.4960 C.3       1 KUW         0.0431
     15 C20         1.1350    5.5200    4.7200 C.3       1 KUW        -0.0095
     16 C21         1.8930    4.6530    5.7250 C.3       1 KUW         0.0308
     17 C24         1.3530    7.5240    6.2870 C.3       1 KUW        -0.0095
     18 N26         4.8990    6.2910    6.8910 N.ar      1 KUW        -0.2923
     19 C27         6.2090    6.1610    7.0630 C.ar      1 KUW        -0.0012
     20 C30         8.5710    4.6680    8.9000 C.2       1 KUW         0.0455
     21 C33         5.9470    3.7820    7.1930 C.ar      1 KUW        -0.0363
     22 C34         4.5830    3.9440    7.0100 C.ar      1 KUW         0.0794
     23 N4         -3.1780    7.5690    2.2200 N.am      1 KUW        -0.1367
     24 C5         -2.0420    7.9280    2.8500 C.2       1 KUW         0.2585
     25 O6         -1.4470    8.9650    2.5850 O.2       1 KUW        -0.3747
     26 S15        -3.6220    6.1080    2.9270 S.o2      1 KUW         0.0850
     27 O16        -4.8600    6.3160    3.5830 O.2       1 KUW        -0.1492
     28 N22         2.6990    5.4830    6.6610 N.pl3     1 KUW        -0.2968
     29 C23         2.0810    6.6550    7.3170 C.3       1 KUW         0.0308
     30 C25         4.0650    5.2430    6.8420 C.ar      1 KUW         0.1213
     31 C28         6.7670    4.9020    7.2150 C.ar      1 KUW        -0.0159
     32 C29         8.2500    4.7170    7.4240 C.3       1 KUW         0.0335
     33 O31         7.7800    5.0130    9.7500 O.co2     1 KUW        -0.5665
     34 O32         9.7700    4.2310    9.2940 O.co2     1 KUW        -0.5665
     35 CL1         3.6120    2.5020    6.9930 Cl        1 KUW        -0.0730
     36 H1         -5.3368    9.9331    1.2142 H         1 KUW         0.0252
     37 H2         -4.1223    9.9877    2.5365 H         1 KUW         0.0252
     38 H3         -5.4603    8.7906    2.5948 H         1 KUW         0.0252
     39 H4         -3.1740    8.8241    0.5121 H         1 KUW         0.0572
     40 H5         -4.2132    6.6880   -0.2137 H         1 KUW         0.0252
     41 H6         -5.3819    8.0433   -0.3689 H         1 KUW         0.0252
     42 H7         -5.5140    6.8965    1.0074 H         1 KUW         0.0252
     43 H8         -2.5420    6.0197    6.8768 H         1 KUW         0.0567
     44 H9         -2.3883    4.0627    8.3896 H         1 KUW         0.0601
     45 H10        -2.0471    1.8009    7.4707 H         1 KUW         0.0567
     46 H11        -1.8380    1.4476    5.0259 H         1 KUW         0.0601
     47 H12        -1.9585    3.3950    3.4949 H         1 KUW         0.0567
     48 H13        -0.0865    8.4283    4.4619 H         1 KUW         0.1841
     49 H14        -0.2839    6.1330    6.2094 H         1 KUW         0.0562
     50 H15         1.8435    5.9746    4.0120 H         1 KUW         0.0307
     51 H16         0.4104    4.9030    4.1684 H         1 KUW         0.0307
     52 H17         2.5654    3.9760    5.1777 H         1 KUW         0.0518
     53 H18         1.1691    4.0613    6.3045 H         1 KUW         0.0518
     54 H19         0.7843    8.3133    6.8003 H         1 KUW         0.0307
     55 H20         2.0828    7.9830    5.6039 H         1 KUW         0.0307
     56 H21         6.8424    7.0404    7.0845 H         1 KUW         0.0721
     57 H22         6.3692    2.7914    7.3176 H         1 KUW         0.0651
     58 H23         1.3605    6.3088    8.0726 H         1 KUW         0.0518
     59 H24         2.8654    7.2522    7.8048 H         1 KUW         0.0518
     60 H25         8.5680    3.7755    6.9523 H         1 KUW         0.0578
     61 H26         8.7888    5.5582    6.9634 H         1 KUW         0.0578
@<TRIPOS>BOND
     1    2    1 1  
     2    2    3 1  
     3   23    2 1  
     4    4    5 2  
     5   13    4 1  
     6    4   24 1  
     7    5    6 1  
     8    5   26 1  
     9    6    7 ar 
    10    6   11 ar 
    11    7    8 ar 
    12    8    9 ar 
    13   10    9 ar 
    14   11   10 ar 
    15   26   12 2  
    16   14   13 1  
    17   15   14 1  
    18   17   14 1  
    19   16   15 1  
    20   28   16 1  
    21   29   17 1  
    22   19   18 ar 
    23   18   30 ar 
    24   31   19 ar 
    25   32   20 1  
    26   20   33 ar 
    27   20   34 ar 
    28   21   22 ar 
    29   31   21 ar 
    30   22   30 ar 
    31   22   35 1  
    32   24   23 am 
    33   23   26 am 
    34   24   25 2  
    35   26   27 2  
    36   28   29 1  
    37   30   28 1  
    38   31   32 1  
    39    1   36 1  
    40    1   37 1  
    41    1   38 1  
    42    2   39 1  
    43    3   40 1  
    44    3   41 1  
    45    3   42 1  
    46    7   43 1  
    47    8   44 1  
    48    9   45 1  
    49   10   46 1  
    50   11   47 1  
    51   13   48 1  
    52   14   49 1  
    53   15   50 1  
    54   15   51 1  
    55   16   52 1  
    56   16   53 1  
    57   17   54 1  
    58   17   55 1  
    59   19   56 1  
    60   21   57 1  
    61   29   58 1  
    62   29   59 1  
    63   32   60 1  
    64   32   61 1  
@<TRIPOS>SUBSTRUCTURE
     1 KUW         1

