### 
### Created by X-TOOL on Mon Aug  2 16:16:49 2021
### 

@<TRIPOS>MOLECULE
6s4t_ligand
   62    66     1     0     0
SMALL
GAST_HUCK


@<TRIPOS>ATOM
      1 C7         21.3620    9.9750   13.3340 C.ar      1 KVB        -0.0684
      2 C8         20.4760    9.0460   13.8770 C.ar      1 KVB        -0.0681
      3 C9         20.0760    9.1130   15.2220 C.ar      1 KVB        -0.0581
      4 C10        20.5660   10.1170   16.0450 C.ar      1 KVB        -0.0303
      5 C11        20.1220   10.2210   17.5140 C.3       1 KVB         0.0229
      6 C14        11.5550    3.2720   15.9380 C.2       1 KVB         0.0453
      7 C15        12.1230    3.6330   17.2980 C.3       1 KVB         0.0304
      8 C16        13.3030    7.2110   16.9710 C.ar      1 KVB        -0.0640
      9 C19        14.3880    4.6710   17.3860 C.ar      1 KVB        -0.0651
     10 C20        15.2220    5.7760   17.3360 C.ar      1 KVB        -0.0640
     11 C21        14.6760    7.0360   17.1260 C.ar      1 KVB        -0.0194
     12 C22        15.6140    8.2020   17.0900 C.3       1 KVB         0.1014
     13 C24        16.9540   10.7440   16.7390 C.ar      1 KVB        -0.0213
     14 C27        16.9140   11.6040   14.0690 C.ar      1 KVB        -0.0665
     15 C30        18.8380   13.8460   17.4220 C.ar      1 KVB         0.0395
     16 C31        18.8520   12.4280   17.1980 C.ar      1 KVB         0.0235
     17 C32        19.9350   11.7080   17.7500 C.ar      1 KVB         0.0149
     18 C33        20.9110   12.3640   18.5080 C.ar      1 KVB         0.0247
     19 C35        19.8870   14.4320   18.2010 C.ar      1 KVB         0.0626
     20 F1         21.0620   17.8370   18.8750 F         1 KVB        -0.2403
     21 F2         22.2160   15.9610   18.6920 F         1 KVB        -0.2403
     22 F3         20.9820   16.3040   20.5520 F         1 KVB        -0.2403
     23 C4         21.0190   16.4800   19.1770 C.3       1 KVB         0.3586
     24 C5         21.4480   11.0490   15.4770 C.ar      1 KVB        -0.0581
     25 C6         21.8480   10.9930   14.1400 C.ar      1 KVB        -0.0681
     26 O12        11.9380    3.7960   14.9090 O.co2     1 KVB        -0.5666
     27 O13        10.6090    2.3270   15.8710 O.co2     1 KVB        -0.5666
     28 C17        12.4660    6.1120   17.0310 C.ar      1 KVB        -0.0651
     29 C18        13.0160    4.8460   17.2360 C.ar      1 KVB        -0.0368
     30 O23        15.1860    9.1850   16.1450 O.3       1 KVB        -0.3060
     31 C25        16.0660   10.1720   15.8090 C.ar      1 KVB         0.0969
     32 C26        16.0410   10.6110   14.4860 C.ar      1 KVB        -0.0298
     33 C28        17.8050   12.1610   14.9670 C.ar      1 KVB        -0.0603
     34 C29        17.8330   11.7620   16.3260 C.ar      1 KVB        -0.0132
     35 N34        20.8740   13.6640   18.7130 N.ar      1 KVB        -0.2878
     36 C36        19.8780   15.8280   18.4280 C.ar      1 KVB         0.0521
     37 C37        18.8910   16.6000   17.8660 C.ar      1 KVB        -0.0225
     38 C38        17.8480   16.0410   17.1210 C.ar      1 KVB        -0.0160
     39 C39        17.8190   14.6910   16.9080 C.ar      1 KVB        -0.0113
     40 H1         21.6667    9.9026   12.2962 H         1 KVB         0.0561
     41 H2         20.0869    8.2541   13.2473 H         1 KVB         0.0600
     42 H3         19.3833    8.3790   15.6176 H         1 KVB         0.0561
     43 H4         20.8948    9.8153   18.1834 H         1 KVB         0.0603
     44 H5         19.1776    9.6802   17.6740 H         1 KVB         0.0603
     45 H6         12.7076    2.7812   17.6757 H         1 KVB         0.0575
     46 H7         11.2905    3.8404   17.9864 H         1 KVB         0.0575
     47 H8         12.8938    8.2009   16.8046 H         1 KVB         0.0541
     48 H9         14.8001    3.6803   17.5404 H         1 KVB         0.0542
     49 H10        16.2925    5.6584   17.4598 H         1 KVB         0.0541
     50 H11        16.6162    7.8469   16.8082 H         1 KVB         0.0765
     51 H12        15.6548    8.6599   18.0893 H         1 KVB         0.0765
     52 H13        16.9607   10.4022   17.7677 H         1 KVB         0.0566
     53 H14        16.8978   11.9433   13.0396 H         1 KVB         0.0598
     54 H15        21.7204   11.7857   18.9386 H         1 KVB         0.0880
     55 H16        21.8350   11.8457   16.1020 H         1 KVB         0.0561
     56 H17        22.5287   11.7348   13.7383 H         1 KVB         0.0600
     57 H18        11.3945    6.2325   16.9200 H         1 KVB         0.0542
     58 H19        15.3392   10.1761   13.7836 H         1 KVB         0.0569
     59 H20        18.4981   12.9204   14.6235 H         1 KVB         0.0557
     60 H21        18.9214   17.6748   18.0040 H         1 KVB         0.0975
     61 H22        17.0674   16.6742   16.7150 H         1 KVB         0.0750
     62 H23        17.0050   14.2585   16.3375 H         1 KVB         0.0982
@<TRIPOS>BOND
     1    2    1 ar 
     2   25    1 ar 
     3    3    2 ar 
     4    4    3 ar 
     5    5    4 1  
     6    4   24 ar 
     7   17    5 1  
     8    7    6 1  
     9    6   26 ar 
    10    6   27 ar 
    11   29    7 1  
    12   11    8 ar 
    13    8   28 ar 
    14   10    9 ar 
    15    9   29 ar 
    16   11   10 ar 
    17   12   11 1  
    18   30   12 1  
    19   31   13 ar 
    20   13   34 ar 
    21   32   14 ar 
    22   14   33 ar 
    23   16   15 ar 
    24   15   19 ar 
    25   15   39 ar 
    26   16   17 ar 
    27   34   16 1  
    28   17   18 ar 
    29   18   35 ar 
    30   19   35 ar 
    31   19   36 ar 
    32   23   20 1  
    33   23   21 1  
    34   23   22 1  
    35   36   23 1  
    36   24   25 ar 
    37   28   29 ar 
    38   31   30 1  
    39   31   32 ar 
    40   33   34 ar 
    41   36   37 ar 
    42   37   38 ar 
    43   38   39 ar 
    44    1   40 1  
    45    2   41 1  
    46    3   42 1  
    47    5   43 1  
    48    5   44 1  
    49    7   45 1  
    50    7   46 1  
    51    8   47 1  
    52    9   48 1  
    53   10   49 1  
    54   12   50 1  
    55   12   51 1  
    56   13   52 1  
    57   14   53 1  
    58   18   54 1  
    59   24   55 1  
    60   25   56 1  
    61   28   57 1  
    62   32   58 1  
    63   33   59 1  
    64   37   60 1  
    65   38   61 1  
    66   39   62 1  
@<TRIPOS>SUBSTRUCTURE
     1 KVB         1

