### 
### Created by X-TOOL on Mon Aug  2 16:16:49 2021
### 

@<TRIPOS>MOLECULE
6s4u_ligand
   58    60     1     0     0
SMALL
GAST_HUCK


@<TRIPOS>ATOM
      1 C1        -74.3790   49.5340  -20.9410 C.2       1 KVK         0.1500
      2 C2        -73.4090   48.5820  -21.1310 C.2       1 KVK         0.1410
      3 C7        -71.9150   51.6330  -18.8640 C.3       1 KVK         0.0628
      4 C8        -71.8560   53.0120  -19.5240 C.3       1 KVK        -0.0402
      5 C9        -72.4500   51.6970  -17.4330 C.3       1 KVK        -0.0402
      6 C12       -73.3480   47.3160  -21.8810 C.ar      1 KVK        -0.0155
      7 C13       -73.1460   46.1040  -21.1930 C.ar      1 KVK        -0.0620
      8 C14       -73.0450   44.9100  -21.8970 C.ar      1 KVK        -0.0679
      9 C15       -73.1020   44.9200  -23.2870 C.ar      1 KVK        -0.0677
     10 C16       -73.2590   46.1180  -23.9800 C.ar      1 KVK        -0.0679
     11 N18       -75.6850   49.5820  -21.4640 N.pl3     1 KVK        -0.3070
     12 C19       -76.3790   48.5810  -22.2700 C.3       1 KVK         0.0283
     13 C20       -76.9470   47.5520  -21.3090 C.3       1 KVK        -0.0304
     14 C21       -77.2250   46.2540  -22.0500 C.3       1 KVK        -0.0392
     15 C22       -78.6150   45.7870  -21.6230 C.3       1 KVK        -0.0034
     16 C24       -77.8370   43.3980  -22.0000 C.ar      1 KVK        -0.0323
     17 C27       -80.4530   42.7040  -22.3860 C.ar      1 KVK         0.1729
     18 S3        -72.0490   49.2250  -20.1930 S.o2      1 KVK         0.0850
     19 N4        -72.6750   50.6670  -19.6670 N.am      1 KVK        -0.1367
     20 C5        -73.9510   50.6660  -20.1310 C.2       1 KVK         0.2585
     21 O6        -74.7220   51.5950  -19.9440 O.2       1 KVK        -0.3747
     22 O10       -71.9020   48.4020  -19.0490 O.2       1 KVK        -0.1492
     23 O11       -71.0000   49.5410  -21.0960 O.2       1 KVK        -0.1492
     24 C17       -73.3530   47.3170  -23.2890 C.ar      1 KVK        -0.0620
     25 C23       -78.8710   44.3350  -21.9380 C.ar      1 KVK         0.0302
     26 C25       -78.1400   42.0680  -22.2870 C.ar      1 KVK        -0.0470
     27 C26       -79.4760   41.7130  -22.4770 C.ar      1 KVK        -0.0139
     28 N28       -80.1320   43.9640  -22.1220 N.ar      1 KVK        -0.2711
     29 S29       -82.1500   42.3050  -22.6110 S.o2      1 KVK         0.0794
     30 N30       -82.9800   43.3080  -21.5870 N.am      1 KVK        -0.2594
     31 O31       -82.4820   42.7100  -23.9340 O.2       1 KVK        -0.1487
     32 O32       -82.3330   40.9740  -22.1370 O.2       1 KVK        -0.1487
     33 H1        -70.8808   51.2628  -18.8060 H         1 KVK         0.0572
     34 H2        -71.2785   53.6986  -18.8876 H         1 KVK         0.0252
     35 H3        -72.8768   53.4014  -19.6516 H         1 KVK         0.0252
     36 H4        -71.3702   52.9274  -20.5073 H         1 KVK         0.0252
     37 H5        -72.4727   50.6842  -17.0044 H         1 KVK         0.0252
     38 H6        -73.4675   52.1149  -17.4403 H         1 KVK         0.0252
     39 H7        -71.7947   52.3379  -16.8248 H         1 KVK         0.0252
     40 H8        -73.0691   46.1023  -20.1117 H         1 KVK         0.0567
     41 H9        -72.9222   43.9737  -21.3647 H         1 KVK         0.0601
     42 H10       -73.0236   43.9881  -23.8351 H         1 KVK         0.0567
     43 H11       -73.3079   46.1133  -25.0629 H         1 KVK         0.0601
     44 H12       -76.2216   50.4348  -21.2503 H         1 KVK         0.1839
     45 H13       -75.6741   48.1004  -22.9644 H         1 KVK         0.0524
     46 H14       -77.1918   49.0534  -22.8411 H         1 KVK         0.0524
     47 H15       -77.8838   47.9337  -20.8770 H         1 KVK         0.0287
     48 H16       -76.2214   47.3646  -20.5038 H         1 KVK         0.0287
     49 H17       -76.4731   45.4972  -21.7821 H         1 KVK         0.0291
     50 H18       -77.2012   46.4261  -23.1362 H         1 KVK         0.0291
     51 H19       -79.3659   46.3969  -22.1465 H         1 KVK         0.0455
     52 H20       -78.7159   45.9332  -20.5374 H         1 KVK         0.0455
     53 H21       -76.8109   43.7016  -21.8269 H         1 KVK         0.0651
     54 H22       -73.4301   48.2523  -23.8315 H         1 KVK         0.0567
     55 H23       -77.3541   41.3250  -22.3610 H         1 KVK         0.0719
     56 H24       -79.7494   40.6862  -22.6913 H         1 KVK         0.0672
     57 H25       -83.9779   43.2614  -21.5414 H         1 KVK         0.1636
     58 H26       -82.4832   43.9602  -21.0144 H         1 KVK         0.1636
@<TRIPOS>BOND
     1    1    2 2  
     2   11    1 1  
     3    1   20 1  
     4    2    6 1  
     5    2   18 1  
     6    3    4 1  
     7    3    5 1  
     8   19    3 1  
     9    6    7 ar 
    10    6   24 ar 
    11    7    8 ar 
    12    8    9 ar 
    13   10    9 ar 
    14   24   10 ar 
    15   12   11 1  
    16   13   12 1  
    17   14   13 1  
    18   15   14 1  
    19   25   15 1  
    20   25   16 ar 
    21   16   26 ar 
    22   17   27 ar 
    23   28   17 ar 
    24   17   29 1  
    25   19   18 am 
    26   18   22 2  
    27   18   23 2  
    28   20   19 am 
    29   20   21 2  
    30   25   28 ar 
    31   26   27 ar 
    32   29   30 am 
    33   29   31 2  
    34   29   32 2  
    35    3   33 1  
    36    4   34 1  
    37    4   35 1  
    38    4   36 1  
    39    5   37 1  
    40    5   38 1  
    41    5   39 1  
    42    7   40 1  
    43    8   41 1  
    44    9   42 1  
    45   10   43 1  
    46   11   44 1  
    47   12   45 1  
    48   12   46 1  
    49   13   47 1  
    50   13   48 1  
    51   14   49 1  
    52   14   50 1  
    53   15   51 1  
    54   15   52 1  
    55   16   53 1  
    56   24   54 1  
    57   26   55 1  
    58   27   56 1  
    59   30   57 1  
    60   30   58 1  
@<TRIPOS>SUBSTRUCTURE
     1 KVK         1

