### 
### Created by X-TOOL on Mon Aug  2 16:16:49 2021
### 

@<TRIPOS>MOLECULE
6s55_ligand
   49    51     1     0     0
SMALL
GAST_HUCK


@<TRIPOS>ATOM
      1 C10       -27.5650   44.1460   10.4480 C.3       1 KW5        -0.0356
      2 C13       -26.2090   44.1890    9.8050 C.3       1 KW5         0.0297
      3 C17       -25.3030   45.4120   11.7210 C.3       1 KW5         0.0322
      4 C24       -23.3580   45.7920    9.0930 C.ar      1 KW5        -0.0119
      5 C26       -22.6520   46.6990    8.3080 C.ar      1 KW5         0.0712
      6 C01       -26.8080   46.6800   13.2600 C.3       1 KW5        -0.0609
      7 C05       -26.6650   45.4360   12.4000 C.3       1 KW5        -0.0267
      8 C07       -27.7580   45.3550   11.3470 C.3       1 KW5        -0.0475
      9 N16       -25.1940   44.2200   10.8650 N.am      1 KW5        -0.2337
     10 S20       -23.7400   43.5490   10.5710 S.o2      1 KW5         0.0683
     11 O21       -23.9910   42.3940    9.7710 O.2       1 KW5        -0.1499
     12 O22       -23.1020   43.4000   11.8420 O.2       1 KW5        -0.1499
     13 C23       -22.7410   44.6500    9.5800 C.ar      1 KW5         0.1045
     14 N27       -23.2320   47.8860    7.7980 N.am      1 KW5        -0.2300
     15 C29       -24.5110   48.3140    7.8880 C.2       1 KW5         0.2319
     16 O30       -25.4160   47.6990    8.4500 O.2       1 KW5        -0.3817
     17 C31       -24.7530   49.6580    7.2250 C.3       1 KW5         0.1537
     18 N34       -26.1020   50.1860    7.3440 N.am      1 KW5        -0.1496
     19 C35       -26.5960   50.8750    8.4650 C.2       1 KW5         0.2313
     20 O36       -25.9600   51.0990    9.4910 O.2       1 KW5        -0.3843
     21 C37       -28.0160   51.2520    8.1410 C.3       1 KW5         0.1262
     22 N40       -28.1740   50.7110    6.8070 N.am      1 KW5        -0.2491
     23 C42       -27.0630   50.1050    6.3500 C.2       1 KW5         0.2945
     24 O43       -26.9040   49.5620    5.2620 O.2       1 KW5        -0.3911
     25 C44       -21.3140   46.4520    8.0090 C.ar      1 KW5        -0.0383
     26 C46       -20.6900   45.3120    8.4830 C.ar      1 KW5        -0.0643
     27 C48       -21.3950   44.4080    9.2630 C.ar      1 KW5         0.0230
     28 BR1       -20.4480   42.8800    9.8690 Br        1 KW5        -0.0619
     29 H1        -27.6533   43.2288   11.0488 H         1 KW5         0.0281
     30 H2        -28.3383   44.1479    9.6657 H         1 KW5         0.0281
     31 H3        -26.1221   45.0908    9.1811 H         1 KW5         0.0478
     32 H4        -26.0659   43.2954    9.1798 H         1 KW5         0.0478
     33 H5        -24.5136   45.3852   12.4866 H         1 KW5         0.0481
     34 H6        -25.1860   46.3158   11.1051 H         1 KW5         0.0481
     35 H7        -24.3999   45.9803    9.3257 H         1 KW5         0.0529
     36 H8        -27.7967   46.6807   13.7422 H         1 KW5         0.0233
     37 H9        -26.7072   47.5755   12.6292 H         1 KW5         0.0233
     38 H10       -26.0238   46.6847   14.0314 H         1 KW5         0.0233
     39 H11       -26.7471   44.5552   13.0537 H         1 KW5         0.0314
     40 H12       -28.7341   45.2775   11.8481 H         1 KW5         0.0269
     41 H13       -27.7326   46.2670   10.7325 H         1 KW5         0.0269
     42 H14       -22.6090   48.4914    7.3027 H         1 KW5         0.2270
     43 H15       -24.5247   49.5525    6.1541 H         1 KW5         0.0824
     44 H16       -24.0639   50.3867    7.6768 H         1 KW5         0.0824
     45 H17       -28.1513   52.3436    8.1482 H         1 KW5         0.0766
     46 H18       -28.7230   50.7902    8.8459 H         1 KW5         0.0766
     47 H19       -29.0211   50.7806    6.2801 H         1 KW5         0.1882
     48 H20       -20.7586   47.1572    7.4014 H         1 KW5         0.0509
     49 H21       -19.6492   45.1253    8.2445 H         1 KW5         0.0604
@<TRIPOS>BOND
     1    2    1 1  
     2    1    8 1  
     3    9    2 1  
     4    3    7 1  
     5    9    3 1  
     6    4    5 ar 
     7   13    4 ar 
     8    5   14 1  
     9    5   25 ar 
    10    7    6 1  
    11    7    8 1  
    12   10    9 am 
    13   10   11 2  
    14   10   12 2  
    15   10   13 1  
    16   13   27 ar 
    17   14   15 am 
    18   15   16 2  
    19   15   17 1  
    20   17   18 1  
    21   18   19 am 
    22   18   23 am 
    23   19   20 2  
    24   19   21 1  
    25   21   22 1  
    26   22   23 am 
    27   23   24 2  
    28   25   26 ar 
    29   26   27 ar 
    30   27   28 1  
    31    1   29 1  
    32    1   30 1  
    33    2   31 1  
    34    2   32 1  
    35    3   33 1  
    36    3   34 1  
    37    4   35 1  
    38    6   36 1  
    39    6   37 1  
    40    6   38 1  
    41    7   39 1  
    42    8   40 1  
    43    8   41 1  
    44   14   42 1  
    45   17   43 1  
    46   17   44 1  
    47   21   45 1  
    48   21   46 1  
    49   22   47 1  
    50   25   48 1  
    51   26   49 1  
@<TRIPOS>SUBSTRUCTURE
     1 KW5         1

