### 
### Created by X-TOOL on Mon Aug  2 16:16:49 2021
### 

@<TRIPOS>MOLECULE
6s56_ligand
   56    59     1     0     0
SMALL
GAST_HUCK


@<TRIPOS>ATOM
      1 C13       -23.3810   44.7190    9.7960 C.ar      1 KVZ         0.1089
      2 C21       -25.1530   49.8170    7.1980 C.3       1 KVZ         0.1526
      3 C01       -26.7280   44.1550    9.5690 C.3       1 KVZ         0.0179
      4 N05       -25.8980   44.2130   10.7810 N.am      1 KVZ        -0.2404
      5 C06       -26.2640   45.2280   11.7800 C.3       1 KVZ         0.0179
      6 S10       -24.3930   43.6000   10.7550 S.o2      1 KVZ         0.0672
      7 O11       -24.4550   42.3700   10.0300 O.2       1 KVZ        -0.1503
      8 O12       -23.9250   43.5970   12.1100 O.2       1 KVZ        -0.1503
      9 C14       -23.9840   45.8800    9.3090 C.ar      1 KVZ        -0.0140
     10 C16       -23.2520   46.8020    8.5610 C.ar      1 KVZ         0.0686
     11 N17       -23.7630   47.9950    7.9820 N.am      1 KVZ        -0.2315
     12 C19       -25.0060   48.5450    8.0370 C.2       1 KVZ         0.2312
     13 O20       -25.9410   48.0690    8.6720 O.2       1 KVZ        -0.3821
     14 N24       -26.1950   50.8340    7.3570 N.am      1 KVZ        -0.1582
     15 C25       -26.4090   51.5820    8.5060 C.2       1 KVZ         0.2830
     16 O26       -25.8300   51.4450    9.5690 O.2       1 KVZ        -0.3917
     17 N27       -27.4060   52.4620    8.2340 N.am      1 KVZ        -0.2893
     18 C29       -27.8860   52.4180    6.8510 C.3       1 KVZ         0.1257
     19 C30       -27.5180   53.7100    6.0880 C.3       1 KVZ        -0.0425
     20 C33       -28.6030   54.7730    6.1020 C.3       1 KVZ        -0.0443
     21 C36       -29.8300   54.2210    5.4190 C.3       1 KVZ        -0.0043
     22 C39       -30.2830   52.9550    6.0890 C.ar      1 KVZ        -0.0143
     23 C40       -31.6340   52.6160    6.0520 C.ar      1 KVZ        -0.0291
     24 C42       -32.0960   51.4640    6.6590 C.ar      1 KVZ        -0.0403
     25 C44       -31.2190   50.6350    7.3150 C.ar      1 KVZ        -0.0392
     26 C46       -29.8700   50.9510    7.3680 C.ar      1 KVZ        -0.0436
     27 C48       -29.3810   52.1020    6.7510 C.ar      1 KVZ        -0.0145
     28 C49       -27.0180   51.2450    6.3300 C.2       1 KVZ         0.2170
     29 O50       -27.0100   50.8030    5.1950 O.2       1 KVZ        -0.3551
     30 C51       -21.9200   46.5420    8.2630 C.ar      1 KVZ        -0.0404
     31 C53       -21.3080   45.3990    8.7360 C.ar      1 KVZ        -0.0597
     32 C55       -22.0210   44.4880    9.4960 C.ar      1 KVZ         0.0503
     33 CL1       -21.1870   43.0580   10.0320 Cl        1 KVZ        -0.0829
     34 H1        -25.2453   49.4687    6.1587 H         1 KVZ         0.0825
     35 H2        -24.2020   50.3559    7.3210 H         1 KVZ         0.0825
     36 H3        -27.7067   44.6139    9.7726 H         1 KVZ         0.0442
     37 H4        -26.8699   43.1055    9.2716 H         1 KVZ         0.0442
     38 H5        -26.2285   44.7022    8.7560 H         1 KVZ         0.0442
     39 H6        -27.3157   45.5181   11.6396 H         1 KVZ         0.0442
     40 H7        -25.6205   46.1117   11.6577 H         1 KVZ         0.0442
     41 H8        -26.1297   44.8136   12.7900 H         1 KVZ         0.0442
     42 H9        -25.0319   46.0669    9.5143 H         1 KVZ         0.0523
     43 H10       -23.0992   48.5162    7.4456 H         1 KVZ         0.2260
     44 H11       -27.7806   53.0867    8.9191 H         1 KVZ         0.1718
     45 H12       -27.3089   53.4446    5.0412 H         1 KVZ         0.0180
     46 H13       -26.6129   54.1352    6.5463 H         1 KVZ         0.0180
     47 H14       -28.2520   55.6673    5.5662 H         1 KVZ         0.0289
     48 H15       -28.8463   55.0399    7.1410 H         1 KVZ         0.0289
     49 H16       -29.5929   54.0080    4.3662 H         1 KVZ         0.0505
     50 H17       -30.6379   54.9658    5.4695 H         1 KVZ         0.0505
     51 H18       -32.3334   53.2662    5.5390 H         1 KVZ         0.0637
     52 H19       -33.1501   51.2145    6.6175 H         1 KVZ         0.0837
     53 H20       -31.5822   49.7320    7.7922 H         1 KVZ         0.0650
     54 H21       -29.1870   50.2952    7.8956 H         1 KVZ         0.0816
     55 H22       -21.3578   47.2415    7.6550 H         1 KVZ         0.0503
     56 H23       -20.2639   45.2138    8.5112 H         1 KVZ         0.0584
@<TRIPOS>BOND
     1    1    6 1  
     2    9    1 ar 
     3    1   32 ar 
     4   12    2 1  
     5    2   14 1  
     6    4    3 1  
     7    4    5 1  
     8    6    4 am 
     9    6    7 2  
    10    6    8 2  
    11   10    9 ar 
    12   11   10 1  
    13   10   30 ar 
    14   11   12 am 
    15   12   13 2  
    16   14   15 am 
    17   14   28 am 
    18   15   16 2  
    19   15   17 am 
    20   17   18 1  
    21   18   19 1  
    22   18   27 1  
    23   18   28 1  
    24   19   20 1  
    25   20   21 1  
    26   21   22 1  
    27   22   23 ar 
    28   22   27 ar 
    29   23   24 ar 
    30   24   25 ar 
    31   25   26 ar 
    32   26   27 ar 
    33   28   29 2  
    34   30   31 ar 
    35   31   32 ar 
    36   32   33 1  
    37    2   34 1  
    38    2   35 1  
    39    3   36 1  
    40    3   37 1  
    41    3   38 1  
    42    5   39 1  
    43    5   40 1  
    44    5   41 1  
    45    9   42 1  
    46   11   43 1  
    47   17   44 1  
    48   19   45 1  
    49   19   46 1  
    50   20   47 1  
    51   20   48 1  
    52   21   49 1  
    53   21   50 1  
    54   23   51 1  
    55   24   52 1  
    56   25   53 1  
    57   26   54 1  
    58   30   55 1  
    59   31   56 1  
@<TRIPOS>SUBSTRUCTURE
     1 KVZ         1

