### 
### Created by X-TOOL on Mon Aug  2 16:16:49 2021
### 

@<TRIPOS>MOLECULE
6s57_ligand
   58    60     1     0     0
SMALL
GAST_HUCK


@<TRIPOS>ATOM
      1 C10       -22.7140   46.8850    8.4410 C.ar      1 KVT         0.0615
      2 C13       -24.5450   48.5300    8.0040 C.2       1 KVT         0.2293
      3 C15       -24.7810   49.8810    7.3520 C.3       1 KVT         0.1531
      4 C24       -29.4980   49.7570    7.4790 C.3       1 KVT        -0.0321
      5 C28       -28.9160   51.8500    6.1720 C.3       1 KVT        -0.0321
      6 C01       -20.8160   43.2400    9.8220 C.3       1 KVT        -0.0362
      7 C05       -21.5110   44.4960    9.3660 C.ar      1 KVT        -0.0342
      8 C06       -20.8230   45.4090    8.5680 C.ar      1 KVT        -0.0717
      9 C08       -21.4020   46.5780    8.1080 C.ar      1 KVT        -0.0472
     10 N11       -23.2640   48.0940    7.9420 N.am      1 KVT        -0.2357
     11 O14       -25.4630   47.9170    8.5410 O.2       1 KVT        -0.3831
     12 N18       -26.1420   50.3680    7.5120 N.am      1 KVT        -0.1488
     13 C19       -26.5780   51.1530    8.5740 C.2       1 KVT         0.2921
     14 O20       -25.8880   51.5360    9.5100 O.2       1 KVT        -0.3909
     15 N21       -27.8950   51.4060    8.3780 N.am      1 KVT        -0.2572
     16 C23       -28.4150   50.7890    7.1550 C.3       1 KVT         0.1334
     17 C32       -27.1620   50.1060    6.6250 C.2       1 KVT         0.2567
     18 O33       -27.0630   49.4440    5.6080 O.2       1 KVT        -0.3310
     19 C34       -23.4320   45.9910    9.2280 C.ar      1 KVT        -0.0208
     20 C36       -22.8420   44.8200    9.6870 C.ar      1 KVT         0.0968
     21 S37       -23.8370   43.7450   10.6920 S.o2      1 KVT         0.0649
     22 O38       -23.1340   43.5220   11.9160 O.2       1 KVT        -0.1514
     23 O39       -24.2140   42.6320    9.8810 O.2       1 KVT        -0.1514
     24 N40       -25.2140   44.5320   11.0810 N.am      1 KVT        -0.2352
     25 C41       -25.1640   45.5180   12.1800 C.3       1 KVT         0.0295
     26 C44       -26.4420   46.3030   12.4070 C.3       1 KVT        -0.0359
     27 C47       -27.6680   45.4610   12.6900 C.3       1 KVT        -0.0515
     28 C50       -28.4030   44.9760   11.4690 C.3       1 KVT        -0.0515
     29 C53       -27.5990   44.0990   10.5340 C.3       1 KVT        -0.0359
     30 C56       -26.2800   44.6580   10.0670 C.3       1 KVT         0.0295
     31 H1        -24.5664   49.7919    6.2768 H         1 KVT         0.0825
     32 H2        -24.0937   50.6114    7.8038 H         1 KVT         0.0825
     33 H3        -29.8700   49.3104    6.5451 H         1 KVT         0.0241
     34 H4        -30.3283   50.2499    8.0059 H         1 KVT         0.0241
     35 H5        -29.0740   48.9690    8.1188 H         1 KVT         0.0241
     36 H6        -28.1097   52.5695    5.9667 H         1 KVT         0.0241
     37 H7        -29.7761   52.3781    6.6094 H         1 KVT         0.0241
     38 H8        -29.2222   51.3649    5.2334 H         1 KVT         0.0241
     39 H9        -19.7862   43.2299    9.4356 H         1 KVT         0.0363
     40 H10       -21.3588   42.3620    9.4420 H         1 KVT         0.0363
     41 H11       -20.7954   43.2108   10.9214 H         1 KVT         0.0363
     42 H12       -19.7953   45.1946    8.2978 H         1 KVT         0.0520
     43 H13       -20.8295   47.2562    7.4857 H         1 KVT         0.0487
     44 H14       -22.6198   48.7060    7.4832 H         1 KVT         0.2235
     45 H15       -28.4521   51.9549    9.0012 H         1 KVT         0.1839
     46 H16       -24.4619   46.2100    9.4858 H         1 KVT         0.0506
     47 H17       -24.3603   46.2350   11.9567 H         1 KVT         0.0478
     48 H18       -24.9270   44.9791   13.1092 H         1 KVT         0.0478
     49 H19       -26.6397   46.9014   11.5054 H         1 KVT         0.0281
     50 H20       -26.2831   46.9734   13.2645 H         1 KVT         0.0281
     51 H21       -28.3649   46.0641   13.2905 H         1 KVT         0.0266
     52 H22       -27.3513   44.5812   13.2694 H         1 KVT         0.0266
     53 H23       -28.7392   45.8571   10.9028 H         1 KVT         0.0266
     54 H24       -29.2780   44.4006   11.8056 H         1 KVT         0.0266
     55 H25       -28.2150   43.9044    9.6437 H         1 KVT         0.0281
     56 H26       -27.3964   43.1511   11.0541 H         1 KVT         0.0281
     57 H27       -25.9695   44.1162    9.1614 H         1 KVT         0.0478
     58 H28       -26.4144   45.7235    9.8289 H         1 KVT         0.0478
@<TRIPOS>BOND
     1    1    9 ar 
     2   10    1 1  
     3    1   19 ar 
     4    3    2 1  
     5    2   10 am 
     6    2   11 2  
     7   12    3 1  
     8   16    4 1  
     9   16    5 1  
    10    7    6 1  
    11    8    7 ar 
    12    7   20 ar 
    13    9    8 ar 
    14   13   12 am 
    15   12   17 am 
    16   13   14 2  
    17   15   13 am 
    18   15   16 1  
    19   16   17 1  
    20   17   18 2  
    21   19   20 ar 
    22   20   21 1  
    23   21   22 2  
    24   21   23 2  
    25   21   24 am 
    26   24   25 1  
    27   24   30 1  
    28   25   26 1  
    29   26   27 1  
    30   27   28 1  
    31   28   29 1  
    32   29   30 1  
    33    3   31 1  
    34    3   32 1  
    35    4   33 1  
    36    4   34 1  
    37    4   35 1  
    38    5   36 1  
    39    5   37 1  
    40    5   38 1  
    41    6   39 1  
    42    6   40 1  
    43    6   41 1  
    44    8   42 1  
    45    9   43 1  
    46   10   44 1  
    47   15   45 1  
    48   19   46 1  
    49   25   47 1  
    50   25   48 1  
    51   26   49 1  
    52   26   50 1  
    53   27   51 1  
    54   27   52 1  
    55   28   53 1  
    56   28   54 1  
    57   29   55 1  
    58   29   56 1  
    59   30   57 1  
    60   30   58 1  
@<TRIPOS>SUBSTRUCTURE
     1 KVT         1

