### 
### Created by X-TOOL on Mon Aug  2 16:16:49 2021
### 

@<TRIPOS>MOLECULE
6s5k_ligand
   60    63     1     0     0
SMALL
GAST_HUCK


@<TRIPOS>ATOM
      1 C1        -16.3800   -9.0630  -13.4810 C.ar      1 KWE        -0.0687
      2 C2        -15.2510   -8.4970  -14.0510 C.ar      1 KWE        -0.0686
      3 C3        -16.6220  -10.4420  -13.5810 C.ar      1 KWE        -0.0686
      4 C7        -14.5950  -10.6470  -14.8480 C.ar      1 KWE        -0.0430
      5 C8         -3.6350  -17.7120  -15.0600 C.ar      1 KWE        -0.0685
      6 C9         -2.5640  -16.7050  -17.0180 C.ar      1 KWE        -0.0685
      7 C10       -13.6030  -11.4970  -15.5880 C.3       1 KWE        -0.0191
      8 C11        -7.2150   -9.7650  -13.4930 C.ar      1 KWE        -0.0687
      9 C12        -4.8850  -17.5490  -15.6960 C.ar      1 KWE        -0.0581
     10 C13        -3.7970  -16.5370  -17.6340 C.ar      1 KWE        -0.0581
     11 C14       -12.4980  -12.0380  -14.6320 C.3       1 KWE        -0.0414
     12 C15        -6.3390  -10.6900  -13.9890 C.ar      1 KWE        -0.0684
     13 C16        -8.4730   -9.6960  -14.0260 C.ar      1 KWE        -0.0684
     14 C19        -6.7180  -11.5300  -15.0850 C.ar      1 KWE        -0.0590
     15 C20        -8.8160  -10.4750  -15.1000 C.ar      1 KWE        -0.0590
     16 C21        -6.1990  -16.7760  -17.6710 C.3       1 KWE         0.0882
     17 C22       -10.6170  -13.5940  -14.5710 C.3       1 KWE         0.0252
     18 C24        -7.9710  -11.4080  -15.6030 C.ar      1 KWE        -0.0361
     19 N26        -7.1430  -15.7840  -17.0810 N.am      1 KWE        -0.1772
     20 C30        -7.0790  -14.4610  -17.2690 C.2       1 KWE         0.2201
     21 C31        -8.8350  -14.7410  -15.9690 C.2       1 KWE         0.1314
     22 C32        -8.1460  -13.7910  -16.6170 C.2       1 KWE         0.0614
     23 C4        -14.3420   -9.2990  -14.7520 C.ar      1 KWE        -0.0603
     24 C5        -15.7210  -11.1960  -14.2930 C.ar      1 KWE        -0.0603
     25 C6         -2.4970  -17.3180  -15.7820 C.ar      1 KWE        -0.0687
     26 C17        -4.9170  -16.9750  -16.9410 C.ar      1 KWE        -0.0170
     27 C18       -11.7270  -13.0940  -15.4170 C.3       1 KWE        -0.0313
     28 O23        -8.5870  -17.1770  -15.9880 O.2       1 KWE        -0.3615
     29 O25        -6.1680  -13.9440  -17.9220 O.2       1 KWE        -0.3807
     30 N27        -9.8960  -14.7260  -15.1640 N.pl3     1 KWE        -0.3156
     31 C28        -8.2290  -16.0360  -16.3090 C.2       1 KWE         0.2606
     32 C29        -8.4420  -12.3220  -16.7080 C.3       1 KWE         0.0115
     33 H1        -17.0852   -8.4329  -12.9512 H         1 KWE         0.0559
     34 H2        -15.0713   -7.4324  -13.9542 H         1 KWE         0.0599
     35 H3        -17.4884  -10.8956  -13.1134 H         1 KWE         0.0599
     36 H4         -3.5574  -18.1226  -14.0598 H         1 KWE         0.0599
     37 H5         -1.6596  -16.3573  -17.5040 H         1 KWE         0.0599
     38 H6        -13.1305  -10.8926  -16.3763 H         1 KWE         0.0426
     39 H7        -14.1300  -12.3478  -16.0445 H         1 KWE         0.0426
     40 H8         -6.9180   -9.0981  -12.6917 H         1 KWE         0.0559
     41 H9         -5.7994  -17.8706  -15.2107 H         1 KWE         0.0557
     42 H10        -3.8813  -16.0829  -18.6147 H         1 KWE         0.0557
     43 H11       -12.9552  -12.4873  -13.7381 H         1 KWE         0.0288
     44 H12       -11.8247  -11.2226  -14.3291 H         1 KWE         0.0288
     45 H13        -5.3526  -10.7880  -13.5504 H         1 KWE         0.0599
     46 H14        -9.2035   -9.0205  -13.5958 H         1 KWE         0.0599
     47 H15        -6.0194  -12.2504  -15.4950 H         1 KWE         0.0559
     48 H16        -9.7887  -10.3416  -15.5594 H         1 KWE         0.0559
     49 H17        -5.9566  -16.4437  -18.6912 H         1 KWE         0.0730
     50 H18        -6.7151  -17.7464  -17.7143 H         1 KWE         0.0730
     51 H19       -11.0324  -13.9135  -13.6039 H         1 KWE         0.0517
     52 H20        -9.9037  -12.7722  -14.4102 H         1 KWE         0.0517
     53 H21       -13.4589   -8.8669  -15.2086 H         1 KWE         0.0557
     54 H22       -15.9064  -12.2565  -14.4194 H         1 KWE         0.0557
     55 H23        -1.5206  -17.5035  -15.3493 H         1 KWE         0.0559
     56 H24       -11.3204  -12.6487  -16.3370 H         1 KWE         0.0286
     57 H25       -12.3981  -13.9257  -15.6777 H         1 KWE         0.0286
     58 H26       -10.2688  -15.6545  -14.9194 H         1 KWE         0.1785
     59 H27        -7.9869  -11.9594  -17.6415 H         1 KWE         0.0535
     60 H28        -9.5353  -12.2172  -16.7682 H         1 KWE         0.0535
@<TRIPOS>BOND
     1    2    1 ar 
     2    3    1 ar 
     3   23    2 ar 
     4   24    3 ar 
     5    7    4 1  
     6    4   23 ar 
     7    4   24 ar 
     8    9    5 ar 
     9    5   25 ar 
    10   10    6 ar 
    11    6   25 ar 
    12   11    7 1  
    13   12    8 ar 
    14   13    8 ar 
    15   26    9 ar 
    16   26   10 ar 
    17   27   11 1  
    18   14   12 ar 
    19   15   13 ar 
    20   18   14 ar 
    21   18   15 ar 
    22   19   16 1  
    23   16   26 1  
    24   17   27 1  
    25   30   17 1  
    26   32   18 1  
    27   20   19 am 
    28   31   19 am 
    29   22   20 1  
    30   20   29 2  
    31   22   21 2  
    32   21   30 1  
    33   21   31 1  
    34   22   32 1  
    35   31   28 2  
    36    1   33 1  
    37    2   34 1  
    38    3   35 1  
    39    5   36 1  
    40    6   37 1  
    41    7   38 1  
    42    7   39 1  
    43    8   40 1  
    44    9   41 1  
    45   10   42 1  
    46   11   43 1  
    47   11   44 1  
    48   12   45 1  
    49   13   46 1  
    50   14   47 1  
    51   15   48 1  
    52   16   49 1  
    53   16   50 1  
    54   17   51 1  
    55   17   52 1  
    56   23   53 1  
    57   24   54 1  
    58   25   55 1  
    59   27   56 1  
    60   27   57 1  
    61   30   58 1  
    62   32   59 1  
    63   32   60 1  
@<TRIPOS>SUBSTRUCTURE
     1 KWE         1

