### 
### Created by X-TOOL on Mon Aug  2 16:17:15 2021
### 

@<TRIPOS>MOLECULE
6s7k_ligand
   46    48     1     0     0
SMALL
GAST_HUCK


@<TRIPOS>ATOM
      1 O3        169.4510  -13.0180   31.3040 O.2       1 KYZ        -0.3836
      2 C4        171.2450   -7.1390   31.3730 C.3       1 KYZ         0.0562
      3 C5        169.3170  -10.2030   31.8910 C.ar      1 KYZ         0.0983
      4 O4        165.3300  -10.8840   33.5760 O.2       1 KYZ        -0.1519
      5 C6        170.4160  -12.4080   31.7590 C.2       1 KYZ         0.2123
      6 N1        171.5490  -15.4950   32.3110 N.2       1 KYZ        -0.1824
      7 C7        171.6610  -13.1270   32.2180 C.3       1 KYZ         0.0879
      8 C8        171.8490  -14.4740   31.5870 C.2       1 KYZ         0.0742
      9 N2        171.6280  -16.7780   31.7000 N.am      1 KYZ        -0.1717
     10 C9        171.9510  -17.0560   30.4550 C.2       1 KYZ         0.2361
     11 C10       172.2840  -15.9070   29.6220 C.ar      1 KYZ         0.0610
     12 C11       172.6310  -16.0850   28.2750 C.ar      1 KYZ        -0.0440
     13 C12       172.9690  -14.9870   27.5010 C.ar      1 KYZ        -0.0589
     14 N3        164.9300  -11.1550   31.1810 N.am      1 KYZ        -0.2519
     15 C13       172.9230  -13.7020   28.0490 C.ar      1 KYZ        -0.0598
     16 C14       172.5750  -13.5130   29.3750 C.ar      1 KYZ        -0.0505
     17 C15       172.2510  -14.6160   30.1760 C.ar      1 KYZ         0.0130
     18 S         165.3200  -10.1390   32.3610 S.o2      1 KYZ         0.0597
     19 O         164.4690   -9.0010   32.2460 O.2       1 KYZ        -0.1519
     20 C17       165.2530  -12.5680   31.3580 C.3       1 KYZ         0.0150
     21 C         166.9780   -9.6490   32.0230 C.ar      1 KYZ         0.0835
     22 C16       167.9850  -10.6040   32.0450 C.ar      1 KYZ        -0.0228
     23 C3        169.5920   -8.8350   31.6780 C.ar      1 KYZ         0.1123
     24 O1        170.9080   -8.5350   31.4860 O.3       1 KYZ        -0.3275
     25 C2        168.5670   -7.9060   31.6430 C.ar      1 KYZ        -0.0443
     26 C1        167.2550   -8.3140   31.8260 C.ar      1 KYZ        -0.0597
     27 N         170.4330  -11.0620   31.9210 N.am      1 KYZ        -0.2351
     28 O2        172.0560  -18.2160   30.0640 O.2       1 KYZ        -0.3937
     29 H1        172.3295   -7.0347   31.2217 H         1 KYZ         0.0572
     30 H2        170.9514   -6.6151   32.2946 H         1 KYZ         0.0572
     31 H3        170.7115   -6.7012   30.5164 H         1 KYZ         0.0572
     32 H4        171.6027  -13.2599   33.3084 H         1 KYZ         0.0661
     33 H5        172.5328  -12.5035   31.9707 H         1 KYZ         0.0661
     34 H6        171.4129  -17.5597   32.2853 H         1 KYZ         0.2568
     35 H7        172.6347  -17.0783   27.8410 H         1 KYZ         0.0659
     36 H8        173.2697  -15.1246   26.4687 H         1 KYZ         0.0609
     37 H9        164.4793  -10.8300   30.3496 H         1 KYZ         0.1668
     38 H10       173.1622  -12.8453   27.4294 H         1 KYZ         0.0642
     39 H11       172.5531  -12.5132   29.7933 H         1 KYZ         0.0617
     40 H12       164.9267  -13.1325   30.4721 H         1 KYZ         0.0439
     41 H13       164.7361  -12.9535   32.2492 H         1 KYZ         0.0439
     42 H14       166.3395  -12.6826   31.4860 H         1 KYZ         0.0439
     43 H15       167.7418  -11.6517   32.1803 H         1 KYZ         0.0486
     44 H16       168.7901   -6.8590   31.4724 H         1 KYZ         0.0495
     45 H17       166.4514   -7.5866   31.8142 H         1 KYZ         0.0479
     46 H18       171.3249  -10.6376   32.0770 H         1 KYZ         0.2224
@<TRIPOS>BOND
     1    5    1 2  
     2   24    2 1  
     3    3   22 ar 
     4   23    3 ar 
     5    3   27 1  
     6   18    4 2  
     7    5    7 1  
     8   27    5 am 
     9    8    6 2  
    10    6    9 1  
    11    7    8 1  
    12    8   17 1  
    13    9   10 am 
    14   11   10 1  
    15   10   28 2  
    16   11   12 ar 
    17   17   11 ar 
    18   12   13 ar 
    19   15   13 ar 
    20   18   14 am 
    21   14   20 1  
    22   16   15 ar 
    23   17   16 ar 
    24   18   19 2  
    25   21   18 1  
    26   22   21 ar 
    27   21   26 ar 
    28   23   24 1  
    29   23   25 ar 
    30   25   26 ar 
    31    2   29 1  
    32    2   30 1  
    33    2   31 1  
    34    7   32 1  
    35    7   33 1  
    36    9   34 1  
    37   12   35 1  
    38   13   36 1  
    39   14   37 1  
    40   15   38 1  
    41   16   39 1  
    42   20   40 1  
    43   20   41 1  
    44   20   42 1  
    45   22   43 1  
    46   25   44 1  
    47   26   45 1  
    48   27   46 1  
@<TRIPOS>SUBSTRUCTURE
     1 KYZ         1

