### 
### Created by X-TOOL on Mon Aug  2 16:17:16 2021
### 

@<TRIPOS>MOLECULE
6s7s_ligand
   53    56     1     0     0
SMALL
GAST_HUCK


@<TRIPOS>ATOM
      1 O3        170.2760  -13.0350   31.3140 O.2       1 KZ8        -0.3836
      2 C4        172.0460   -7.1830   31.6390 C.3       1 KZ8         0.0562
      3 C5        170.0720  -10.2320   32.0010 C.ar      1 KZ8         0.0983
      4 O4        165.8750   -9.9750   33.9070 O.2       1 KZ8        -0.1463
      5 C6        171.1830  -12.4240   31.8640 C.2       1 KZ8         0.2123
      6 N1        172.2560  -15.5090   32.5190 N.2       1 KZ8        -0.1824
      7 C7        172.3960  -13.1440   32.4010 C.3       1 KZ8         0.0879
      8 C8        172.5560  -14.4950   31.7830 C.2       1 KZ8         0.0742
      9 N2        172.3800  -16.7500   31.9710 N.am      1 KZ8        -0.1717
     10 C9        172.7880  -17.0580   30.7060 C.2       1 KZ8         0.2361
     11 C10       173.1250  -15.9140   29.8520 C.ar      1 KZ8         0.0610
     12 C11       173.5210  -16.0910   28.5200 C.ar      1 KZ8        -0.0440
     13 C12       173.8140  -14.9800   27.7420 C.ar      1 KZ8        -0.0589
     14 N3        165.9600  -11.7700   32.2150 N.am      1 KZ8        -0.1884
     15 C13       173.7270  -13.6890   28.2810 C.ar      1 KZ8        -0.0598
     16 C14       173.3450  -13.5000   29.6050 C.ar      1 KZ8        -0.0505
     17 C15       173.0270  -14.6150   30.3890 C.ar      1 KZ8         0.0130
     18 S         166.0740  -10.1770   32.5100 S.o2      1 KZ8         0.0812
     19 O         165.2130   -9.4850   31.6040 O.2       1 KZ8        -0.1463
     20 C17       166.1080  -12.2540   30.8730 C.ar      1 KZ8         0.0624
     21 C22       166.1810  -11.3750   29.7940 C.ar      1 KZ8        -0.0456
     22 C21       166.4730  -11.8510   28.5220 C.ar      1 KZ8        -0.0779
     23 C20       166.6960  -13.1970   28.3190 C.ar      1 KZ8        -0.0792
     24 C19       166.6140  -14.0770   29.3900 C.ar      1 KZ8        -0.0779
     25 C18       166.3190  -13.6120   30.6630 C.ar      1 KZ8        -0.0456
     26 C         167.7350   -9.7020   32.1190 C.ar      1 KZ8         0.0894
     27 C16       168.7460  -10.6490   32.1770 C.ar      1 KZ8        -0.0223
     28 C3        170.3460   -8.8740   31.7730 C.ar      1 KZ8         0.1123
     29 O1        171.6710   -8.5660   31.6660 O.3       1 KZ8        -0.3275
     30 C2        169.3200   -7.9610   31.7000 C.ar      1 KZ8        -0.0443
     31 C1        168.0100   -8.3730   31.8590 C.ar      1 KZ8        -0.0592
     32 N         171.1800  -11.0840   32.0690 N.am      1 KZ8        -0.2351
     33 O2        172.9120  -18.2230   30.3660 O.2       1 KZ8        -0.3937
     34 H1        173.1394   -7.1013   31.5503 H         1 KZ8         0.0572
     35 H2        171.7161   -6.6954   32.5682 H         1 KZ8         0.0572
     36 H3        171.5705   -6.6909   30.7778 H         1 KZ8         0.0572
     37 H4        172.2884  -13.2606   33.4895 H         1 KZ8         0.0661
     38 H5        173.2919  -12.5442   32.1832 H         1 KZ8         0.0661
     39 H6        172.1457  -17.5218   32.5622 H         1 KZ8         0.2568
     40 H7        173.5979  -17.0876   28.1005 H         1 KZ8         0.0659
     41 H8        174.1128  -15.1116   26.7083 H         1 KZ8         0.0609
     42 H9        165.7877  -12.4094   32.9643 H         1 KZ8         0.2161
     43 H10       173.9594  -12.8308   27.6608 H         1 KZ8         0.0642
     44 H11       173.2942  -12.5017   30.0244 H         1 KZ8         0.0617
     45 H12       166.0093  -10.3158   29.9479 H         1 KZ8         0.0481
     46 H13       166.5258  -11.1625   27.6864 H         1 KZ8         0.0572
     47 H14       166.9342  -13.5661   27.3280 H         1 KZ8         0.0471
     48 H15       166.7819  -15.1359   29.2299 H         1 KZ8         0.0572
     49 H16       166.2531  -14.3063   31.4928 H         1 KZ8         0.0481
     50 H17       168.5148  -11.6929   32.3553 H         1 KZ8         0.0486
     51 H18       169.5392   -6.9152   31.5172 H         1 KZ8         0.0495
     52 H19       167.2011   -7.6558   31.7800 H         1 KZ8         0.0479
     53 H20       172.0587  -10.6615   32.2914 H         1 KZ8         0.2224
@<TRIPOS>BOND
     1    5    1 2  
     2   29    2 1  
     3    3   27 ar 
     4   28    3 ar 
     5    3   32 1  
     6   18    4 2  
     7    5    7 1  
     8   32    5 am 
     9    8    6 2  
    10    6    9 1  
    11    7    8 1  
    12    8   17 1  
    13    9   10 am 
    14   11   10 1  
    15   10   33 2  
    16   11   12 ar 
    17   17   11 ar 
    18   12   13 ar 
    19   15   13 ar 
    20   18   14 am 
    21   14   20 1  
    22   16   15 ar 
    23   17   16 ar 
    24   18   19 2  
    25   26   18 1  
    26   20   21 ar 
    27   20   25 ar 
    28   21   22 ar 
    29   22   23 ar 
    30   24   23 ar 
    31   25   24 ar 
    32   27   26 ar 
    33   26   31 ar 
    34   28   29 1  
    35   28   30 ar 
    36   30   31 ar 
    37    2   34 1  
    38    2   35 1  
    39    2   36 1  
    40    7   37 1  
    41    7   38 1  
    42    9   39 1  
    43   12   40 1  
    44   13   41 1  
    45   14   42 1  
    46   15   43 1  
    47   16   44 1  
    48   21   45 1  
    49   22   46 1  
    50   23   47 1  
    51   24   48 1  
    52   25   49 1  
    53   27   50 1  
    54   30   51 1  
    55   31   52 1  
    56   32   53 1  
@<TRIPOS>SUBSTRUCTURE
     1 KZ8         1

