### 
### Created by X-TOOL on Mon Aug  2 16:17:17 2021
### 

@<TRIPOS>MOLECULE
6s7z_ligand
   60    64     1     0     0
SMALL
GAST_HUCK


@<TRIPOS>ATOM
      1 O3        170.2990  -13.0180   31.4460 O.2       1 KZN        -0.3836
      2 C4        172.0190   -7.0980   31.5860 C.3       1 KZN         0.0562
      3 C5        170.1330  -10.2200   32.0400 C.ar      1 KZN         0.0983
      4 O4        165.9690  -10.4270   33.7710 O.2       1 KZN        -0.1516
      5 C6        171.2410  -12.4050   31.9440 C.2       1 KZN         0.2123
      6 N1        172.4200  -15.4930   32.5620 N.2       1 KZN        -0.1824
      7 C7        172.4820  -13.1270   32.4230 C.3       1 KZN         0.0879
      8 C8        172.6960  -14.4790   31.8160 C.2       1 KZN         0.0742
      9 N2        172.5620  -16.7270   32.0320 N.am      1 KZN        -0.1717
     10 C9        172.9500  -17.0500   30.7740 C.2       1 KZN         0.2361
     11 C10       173.2850  -15.9230   29.9140 C.ar      1 KZN         0.0610
     12 C11       173.6720  -16.1180   28.5910 C.ar      1 KZN        -0.0440
     13 C12       173.8860  -15.0180   27.7740 C.ar      1 KZN        -0.0589
     14 N3        165.9730  -11.7390   31.7040 N.am      1 KZN        -0.2236
     15 C13       173.7200  -13.7300   28.2640 C.ar      1 KZN        -0.0598
     16 C14       173.3770  -13.5200   29.5930 C.ar      1 KZN        -0.0505
     17 C15       173.1580  -14.6190   30.4250 C.ar      1 KZN         0.0130
     18 S         166.1330  -10.2690   32.3610 S.o2      1 KZN         0.0640
     19 O         165.2740   -9.3790   31.6520 O.2       1 KZN        -0.1516
     20 C25       166.1760  -11.8520   30.2520 C.3       1 KZN         0.0401
     21 C24       166.7800  -13.1950   29.9220 C.3       1 KZN        -0.0043
     22 C23       166.0390  -14.3280   30.5790 C.ar      1 KZN        -0.0379
     23 C22       166.1640  -15.6200   30.0750 C.ar      1 KZN        -0.0668
     24 C21       165.5280  -16.6850   30.6880 C.ar      1 KZN        -0.0755
     25 C20       164.7610  -16.4730   31.8070 C.ar      1 KZN        -0.0754
     26 C19       164.6110  -15.1950   32.3110 C.ar      1 KZN        -0.0653
     27 C18       165.2390  -14.1080   31.7080 C.ar      1 KZN        -0.0223
     28 C17       165.0160  -12.7140   32.2590 C.3       1 KZN         0.0609
     29 C         167.7820   -9.7510   32.0400 C.ar      1 KZN         0.0839
     30 C16       168.8140  -10.6690   32.1430 C.ar      1 KZN        -0.0228
     31 C3        170.3800   -8.8420   31.8390 C.ar      1 KZN         0.1123
     32 O1        171.7020   -8.4870   31.8020 O.3       1 KZN        -0.3275
     33 C2        169.3290   -7.9620   31.6920 C.ar      1 KZN        -0.0443
     34 C1        168.0260   -8.4190   31.7850 C.ar      1 KZN        -0.0597
     35 N         171.2530  -11.0710   32.1330 N.am      1 KZN        -0.2351
     36 O2        172.9560  -18.2130   30.4010 O.2       1 KZN        -0.3937
     37 H1        173.1112   -6.9676   31.5813 H         1 KZN         0.0572
     38 H2        171.5809   -6.4921   32.3928 H         1 KZN         0.0572
     39 H3        171.6069   -6.7739   30.6190 H         1 KZN         0.0572
     40 H4        172.4070  -13.2496   33.5136 H         1 KZN         0.0661
     41 H5        173.3552  -12.5024   32.1834 H         1 KZN         0.0661
     42 H6        172.3564  -17.4938   32.6401 H         1 KZN         0.2568
     43 H7        173.8050  -17.1213   28.2027 H         1 KZN         0.0659
     44 H8        174.1858  -15.1655   26.7428 H         1 KZN         0.0609
     45 H9        173.8592  -12.8814   27.6040 H         1 KZN         0.0642
     46 H10       173.2803  -12.5123   29.9806 H         1 KZN         0.0617
     47 H11       166.8542  -11.0542   29.9151 H         1 KZN         0.0501
     48 H12       165.2081  -11.7513   29.7392 H         1 KZN         0.0501
     49 H13       167.8246  -13.2080   30.2664 H         1 KZN         0.0427
     50 H14       166.7515  -13.3381   28.8317 H         1 KZN         0.0427
     51 H15       166.7672  -15.7936   29.1912 H         1 KZN         0.0537
     52 H16       165.6351  -17.6857   30.2853 H         1 KZN         0.0541
     53 H17       164.2728  -17.3086   32.2954 H         1 KZN         0.0541
     54 H18       163.9953  -15.0362   33.1889 H         1 KZN         0.0538
     55 H19       163.9949  -12.3920   32.0067 H         1 KZN         0.0626
     56 H20       165.1320  -12.7420   33.3525 H         1 KZN         0.0626
     57 H21       168.6015  -11.7201   32.3012 H         1 KZN         0.0486
     58 H22       169.5232   -6.9123   31.5036 H         1 KZN         0.0495
     59 H23       167.1987   -7.7302   31.6575 H         1 KZN         0.0479
     60 H24       172.1310  -10.6487   32.3584 H         1 KZN         0.2224
@<TRIPOS>BOND
     1    5    1 2  
     2   32    2 1  
     3    3   30 ar 
     4   31    3 ar 
     5    3   35 1  
     6   18    4 2  
     7    5    7 1  
     8   35    5 am 
     9    8    6 2  
    10    6    9 1  
    11    7    8 1  
    12    8   17 1  
    13    9   10 am 
    14   11   10 1  
    15   10   36 2  
    16   11   12 ar 
    17   17   11 ar 
    18   12   13 ar 
    19   15   13 ar 
    20   18   14 am 
    21   14   20 1  
    22   14   28 1  
    23   16   15 ar 
    24   17   16 ar 
    25   18   19 2  
    26   29   18 1  
    27   20   21 1  
    28   21   22 1  
    29   22   23 ar 
    30   27   22 ar 
    31   23   24 ar 
    32   25   24 ar 
    33   26   25 ar 
    34   27   26 ar 
    35   28   27 1  
    36   30   29 ar 
    37   29   34 ar 
    38   31   32 1  
    39   31   33 ar 
    40   33   34 ar 
    41    2   37 1  
    42    2   38 1  
    43    2   39 1  
    44    7   40 1  
    45    7   41 1  
    46    9   42 1  
    47   12   43 1  
    48   13   44 1  
    49   15   45 1  
    50   16   46 1  
    51   20   47 1  
    52   20   48 1  
    53   21   49 1  
    54   21   50 1  
    55   23   51 1  
    56   24   52 1  
    57   25   53 1  
    58   26   54 1  
    59   28   55 1  
    60   28   56 1  
    61   30   57 1  
    62   33   58 1  
    63   34   59 1  
    64   35   60 1  
@<TRIPOS>SUBSTRUCTURE
     1 KZN         1

