### 
### Created by X-TOOL on Mon Aug  2 16:17:18 2021
### 

@<TRIPOS>MOLECULE
6s88_ligand
   63    67     1     0     0
SMALL
GAST_HUCK


@<TRIPOS>ATOM
      1 O3        170.4300  -12.9280   31.5280 O.2       1 L0K        -0.3836
      2 C4        172.3140   -7.1270   31.6310 C.3       1 L0K         0.0562
      3 C5        170.3210  -10.1490   32.1080 C.ar      1 L0K         0.0983
      4 O4        166.1420  -10.2310   33.7290 O.2       1 L0K        -0.1517
      5 C6        171.3870  -12.3370   32.0360 C.2       1 L0K         0.2123
      6 N1        172.5580  -15.4560   32.6640 N.2       1 L0K        -0.1824
      7 C7        172.6000  -13.0780   32.5430 C.3       1 L0K         0.0879
      8 C8        172.8510  -14.4290   31.9380 C.2       1 L0K         0.0742
      9 N2        172.6870  -16.7020   32.0820 N.am      1 L0K        -0.1717
     10 C9        173.2980  -14.5510   30.5430 C.ar      1 L0K         0.0130
     11 C10       173.4020  -15.8460   29.9990 C.ar      1 L0K         0.0610
     12 C11       173.7540  -16.0200   28.6520 C.ar      1 L0K        -0.0440
     13 C12       174.0470  -14.9040   27.8810 C.ar      1 L0K        -0.0589
     14 N3        166.1510  -11.6040   31.6920 N.am      1 L0K        -0.2319
     15 C13       173.9630  -13.6130   28.4270 C.ar      1 L0K        -0.0598
     16 C14       173.5760  -13.4260   29.7500 C.ar      1 L0K        -0.0505
     17 C15       173.0810  -16.9920   30.8410 C.2       1 L0K         0.2361
     18 S         166.3080  -10.1210   32.3270 S.o2      1 L0K         0.0626
     19 O         165.4850   -9.2350   31.5760 O.2       1 L0K        -0.1517
     20 C26       165.3250  -12.6150   32.3850 C.3       1 L0K         0.0382
     21 C25       165.9420  -13.9990   32.3880 C.3       1 L0K        -0.0045
     22 C24       165.8670  -14.7970   31.1050 C.ar      1 L0K        -0.0394
     23 C23       165.3360  -16.0890   31.1520 C.ar      1 L0K        -0.0668
     24 C22       165.4250  -16.9290   30.0480 C.ar      1 L0K        -0.0755
     25 C21       166.0270  -16.4870   28.8790 C.ar      1 L0K        -0.0755
     26 C20       166.5340  -15.1970   28.8040 C.ar      1 L0K        -0.0668
     27 C19       166.4690  -14.3440   29.9100 C.ar      1 L0K        -0.0394
     28 C18       167.1360  -12.9940   29.8800 C.3       1 L0K        -0.0045
     29 C17       166.2360  -11.8160   30.2410 C.3       1 L0K         0.0382
     30 C         167.9790   -9.6330   32.0510 C.ar      1 L0K         0.0837
     31 C16       168.9930  -10.5610   32.2260 C.ar      1 L0K        -0.0228
     32 C3        170.6030   -8.8060   31.8130 C.ar      1 L0K         0.1123
     33 O1        171.9400   -8.4980   31.7620 O.3       1 L0K        -0.3275
     34 C2        169.5680   -7.9070   31.6370 C.ar      1 L0K        -0.0443
     35 C1        168.2560   -8.3230   31.7440 C.ar      1 L0K        -0.0597
     36 N         171.4250  -11.0110   32.2330 N.am      1 L0K        -0.2351
     37 O2        173.1580  -18.1580   30.4590 O.2       1 L0K        -0.3937
     38 H1        173.4108   -7.0471   31.6049 H         1 L0K         0.0572
     39 H2        171.9252   -6.5574   32.4879 H         1 L0K         0.0572
     40 H3        171.8944   -6.7199   30.6993 H         1 L0K         0.0572
     41 H4        172.4818  -13.2128   33.6283 H         1 L0K         0.0661
     42 H5        173.4828  -12.4523   32.3452 H         1 L0K         0.0661
     43 H6        172.4566  -17.4830   32.6625 H         1 L0K         0.2568
     44 H7        173.7965  -17.0130   28.2193 H         1 L0K         0.0659
     45 H8        174.3439  -15.0302   26.8461 H         1 L0K         0.0609
     46 H9        174.2021  -12.7535   27.8113 H         1 L0K         0.0642
     47 H10       173.4904  -12.4272   30.1624 H         1 L0K         0.0617
     48 H11       164.3479  -12.6703   31.8828 H         1 L0K         0.0499
     49 H12       165.1838  -12.2943   33.4277 H         1 L0K         0.0499
     50 H13       165.4365  -14.5840   33.1705 H         1 L0K         0.0427
     51 H14       167.0057  -13.8856   32.6444 H         1 L0K         0.0427
     52 H15       164.8511  -16.4387   32.0562 H         1 L0K         0.0537
     53 H16       165.0222  -17.9340   30.1008 H         1 L0K         0.0541
     54 H17       166.1015  -17.1491   28.0239 H         1 L0K         0.0541
     55 H18       166.9836  -14.8484   27.8813 H         1 L0K         0.0537
     56 H19       167.5223  -12.8279   28.8636 H         1 L0K         0.0427
     57 H20       167.9740  -13.0126   30.5923 H         1 L0K         0.0427
     58 H21       166.6400  -10.9059   29.7735 H         1 L0K         0.0499
     59 H22       165.2256  -12.0105   29.8521 H         1 L0K         0.0499
     60 H23       168.7575  -11.5947   32.4519 H         1 L0K         0.0486
     61 H24       169.7877   -6.8693   31.4137 H         1 L0K         0.0495
     62 H25       167.4474   -7.6185   31.5863 H         1 L0K         0.0479
     63 H26       172.3029  -10.6054   32.4875 H         1 L0K         0.2224
@<TRIPOS>BOND
     1    5    1 2  
     2   33    2 1  
     3    3   31 ar 
     4   32    3 ar 
     5    3   36 1  
     6   18    4 2  
     7    5    7 1  
     8   36    5 am 
     9    8    6 2  
    10    6    9 1  
    11    7    8 1  
    12    8   10 1  
    13    9   17 am 
    14   10   11 ar 
    15   10   16 ar 
    16   11   12 ar 
    17   11   17 1  
    18   12   13 ar 
    19   15   13 ar 
    20   18   14 am 
    21   14   20 1  
    22   14   29 1  
    23   16   15 ar 
    24   17   37 2  
    25   18   19 2  
    26   30   18 1  
    27   20   21 1  
    28   21   22 1  
    29   22   23 ar 
    30   27   22 ar 
    31   23   24 ar 
    32   25   24 ar 
    33   26   25 ar 
    34   27   26 ar 
    35   28   27 1  
    36   29   28 1  
    37   31   30 ar 
    38   30   35 ar 
    39   32   33 1  
    40   32   34 ar 
    41   34   35 ar 
    42    2   38 1  
    43    2   39 1  
    44    2   40 1  
    45    7   41 1  
    46    7   42 1  
    47    9   43 1  
    48   12   44 1  
    49   13   45 1  
    50   15   46 1  
    51   16   47 1  
    52   20   48 1  
    53   20   49 1  
    54   21   50 1  
    55   21   51 1  
    56   23   52 1  
    57   24   53 1  
    58   25   54 1  
    59   26   55 1  
    60   28   56 1  
    61   28   57 1  
    62   29   58 1  
    63   29   59 1  
    64   31   60 1  
    65   34   61 1  
    66   35   62 1  
    67   36   63 1  
@<TRIPOS>SUBSTRUCTURE
     1 L0K         1

