### 
### Created by X-TOOL on Mon Aug  2 16:16:49 2021
### 

@<TRIPOS>MOLECULE
6s89_ligand
   72    76     1     0     0
SMALL
GAST_HUCK


@<TRIPOS>ATOM
      1 C4          2.1550   52.0060  -21.1560 C.ar      1 L0Q         0.1421
      2 C5          1.7280   50.8760  -21.7700 C.ar      1 L0Q         0.0676
      3 C6          1.7510   50.8400  -23.1150 C.ar      1 L0Q         0.1745
      4 N1          2.1690   51.8900  -23.8400 N.ar      1 L0Q        -0.2611
      5 N3          2.5800   53.0860  -21.8310 N.ar      1 L0Q        -0.2721
      6 CBE        -0.3480   48.2580  -14.1040 C.3       1 L0Q         0.0678
      7 CBG        -0.8960   48.5430  -12.7190 C.3       1 L0Q        -0.0118
      8 NBH         0.2020   48.4860  -11.7290 N.4       1 L0Q         0.2359
      9 CBJ        -0.3150   48.6800  -10.3620 C.3       1 L0Q        -0.0430
     10 CBI         1.2830   49.4560  -12.0410 C.3       1 L0Q        -0.0118
     11 CBF         1.8490   49.2050  -13.4410 C.3       1 L0Q         0.0678
     12 NBD         0.7150   49.2430  -14.3860 N.pl3     1 L0Q        -0.2967
     13 CAR         0.9350   49.5550  -15.6760 C.ar      1 L0Q         0.0441
     14 CAS         1.9420   50.4560  -16.0250 C.ar      1 L0Q        -0.0409
     15 CAT         2.1480   50.8050  -17.3520 C.ar      1 L0Q        -0.0607
     16 CAQ         0.1230   49.0020  -16.6660 C.ar      1 L0Q        -0.0409
     17 CAP         0.3390   49.3590  -17.9890 C.ar      1 L0Q        -0.0607
     18 CAJ         1.3660   50.2370  -18.3490 C.ar      1 L0Q        -0.0012
     19 CAH         1.5830   50.6210  -19.6180 C.2       1 L0Q         0.0758
     20 NAG         2.0610   51.8410  -19.8450 N.pl3     1 L0Q        -0.2563
     21 C2          2.6010   53.0600  -23.2180 C.ar      1 L0Q         0.0549
     22 OAL         1.3330   49.7020  -23.7520 O.3       1 L0Q        -0.2889
     23 CAM         1.3180   49.8500  -25.2020 C.3       1 L0Q         0.0827
     24 CAO         2.7450   49.7200  -25.7700 C.3       1 L0Q        -0.0334
     25 CAN         0.4150   48.7860  -25.8470 C.3       1 L0Q        -0.0334
     26 CAI         1.3430   50.0040  -20.8000 C.2       1 L0Q         0.0001
     27 CAK         0.9020   48.7260  -20.9620 C.ar      1 L0Q        -0.0521
     28 CAU        -0.1560   48.3160  -21.7950 C.ar      1 L0Q        -0.0443
     29 CAY         1.5830   47.7260  -20.2630 C.ar      1 L0Q        -0.0786
     30 CAX         1.2230   46.3820  -20.3630 C.ar      1 L0Q        -0.0809
     31 CAW         0.1710   45.9970  -21.1890 C.ar      1 L0Q        -0.0469
     32 CAV        -0.5280   46.9540  -21.9180 C.ar      1 L0Q         0.0596
     33 NAZ        -1.5460   46.4780  -22.6770 N.am      1 L0Q        -0.2355
     34 CBA        -2.4710   47.2640  -23.3050 C.2       1 L0Q         0.2031
     35 OBK        -2.5060   48.5030  -23.3200 O.2       1 L0Q        -0.3850
     36 CBB        -3.5480   46.4580  -24.0570 C.3       1 L0Q         0.0403
     37 CBC        -3.5000   44.9480  -23.8220 C.3       1 L0Q        -0.0477
     38 H1         -1.1511   48.3518  -14.8498 H         1 L0Q         0.0569
     39 H2          0.0676   47.2401  -14.1388 H         1 L0Q         0.0569
     40 H3         -1.6574   47.7910  -12.4647 H         1 L0Q         0.0834
     41 H4         -1.3505   49.5446  -12.7042 H         1 L0Q         0.0834
     42 H5          0.6036   47.5626  -11.7750 H         1 L0Q         0.2032
     43 H6          0.5179   48.6337   -9.6450 H         1 L0Q         0.0778
     44 H7         -1.0432   47.8890  -10.1297 H         1 L0Q         0.0778
     45 H8         -0.8054   49.6621  -10.2913 H         1 L0Q         0.0778
     46 H9          2.0896   49.3479  -11.3009 H         1 L0Q         0.0834
     47 H10         0.8765   50.4770  -11.9938 H         1 L0Q         0.0834
     48 H11         2.3375   48.2202  -13.4786 H         1 L0Q         0.0569
     49 H12         2.5792   49.9866  -13.6976 H         1 L0Q         0.0569
     50 H13         2.5687   50.8869  -15.2526 H         1 L0Q         0.0527
     51 H14         2.9196   51.5212  -17.6105 H         1 L0Q         0.0602
     52 H15        -0.6646   48.3041  -16.4057 H         1 L0Q         0.0527
     53 H16        -0.3023   48.9484  -18.7605 H         1 L0Q         0.0602
     54 H17         2.3137   52.5355  -19.1276 H         1 L0Q         0.2307
     55 H18         2.9392   53.9139  -23.7938 H         1 L0Q         0.0985
     56 H19         0.9251   50.8471  -25.4497 H         1 L0Q         0.0658
     57 H20         2.7161   49.8339  -26.8637 H         1 L0Q         0.0259
     58 H21         3.1524   48.7305  -25.5151 H         1 L0Q         0.0259
     59 H22         3.3849   50.5028  -25.3366 H         1 L0Q         0.0259
     60 H23         0.4182   48.9157  -26.9393 H         1 L0Q         0.0259
     61 H24        -0.6115   48.8973  -25.4676 H         1 L0Q         0.0259
     62 H25         0.7922   47.7837  -25.5957 H         1 L0Q         0.0259
     63 H26        -0.7021   49.0637  -22.3588 H         1 L0Q         0.0441
     64 H27         2.4146   48.0024  -19.6250 H         1 L0Q         0.0444
     65 H28         1.7648   45.6344  -19.7951 H         1 L0Q         0.0564
     66 H29        -0.1039   44.9511  -21.2644 H         1 L0Q         0.0459
     67 H30        -1.6250   45.4869  -22.7842 H         1 L0Q         0.2253
     68 H31        -3.4221   46.6407  -25.1344 H         1 L0Q         0.0505
     69 H32        -4.5348   46.8229  -23.7361 H         1 L0Q         0.0505
     70 H33        -4.3020   44.4618  -24.3968 H         1 L0Q         0.0254
     71 H34        -3.6382   44.7390  -22.7509 H         1 L0Q         0.0254
     72 H35        -2.5254   44.5568  -24.1492 H         1 L0Q         0.0254
@<TRIPOS>BOND
     1    1    2 ar 
     2    1    5 ar 
     3   20    1 1  
     4    2    3 ar 
     5    2   26 1  
     6    3    4 ar 
     7    3   22 1  
     8   21    4 ar 
     9    5   21 ar 
    10    6    7 1  
    11   12    6 1  
    12    7    8 1  
    13    8    9 1  
    14   10    8 1  
    15   11   10 1  
    16   12   11 1  
    17   13   12 1  
    18   14   13 ar 
    19   16   13 ar 
    20   15   14 ar 
    21   18   15 ar 
    22   17   16 ar 
    23   18   17 ar 
    24   19   18 1  
    25   19   20 1  
    26   19   26 2  
    27   22   23 1  
    28   23   24 1  
    29   23   25 1  
    30   26   27 1  
    31   27   28 ar 
    32   27   29 ar 
    33   28   32 ar 
    34   29   30 ar 
    35   30   31 ar 
    36   31   32 ar 
    37   32   33 1  
    38   33   34 am 
    39   34   35 2  
    40   34   36 1  
    41   36   37 1  
    42    6   38 1  
    43    6   39 1  
    44    7   40 1  
    45    7   41 1  
    46    8   42 1  
    47    9   43 1  
    48    9   44 1  
    49    9   45 1  
    50   10   46 1  
    51   10   47 1  
    52   11   48 1  
    53   11   49 1  
    54   14   50 1  
    55   15   51 1  
    56   16   52 1  
    57   17   53 1  
    58   20   54 1  
    59   21   55 1  
    60   23   56 1  
    61   24   57 1  
    62   24   58 1  
    63   24   59 1  
    64   25   60 1  
    65   25   61 1  
    66   25   62 1  
    67   28   63 1  
    68   29   64 1  
    69   30   65 1  
    70   31   66 1  
    71   33   67 1  
    72   36   68 1  
    73   36   69 1  
    74   37   70 1  
    75   37   71 1  
    76   37   72 1  
@<TRIPOS>SUBSTRUCTURE
     1 L0Q         1

