### 
### Created by X-TOOL on Mon Aug  2 16:16:49 2021
### 

@<TRIPOS>MOLECULE
6s8a_ligand
   75    79     1     0     0
SMALL
GAST_HUCK


@<TRIPOS>ATOM
      1 C4         51.5600   -1.8440  -20.0950 C.ar      1 L0N         0.1421
      2 C5         50.5640   -1.2930  -20.8030 C.ar      1 L0N         0.0676
      3 C6         50.6400   -1.3010  -22.1420 C.ar      1 L0N         0.1742
      4 N1         51.6790   -1.8300  -22.7970 N.ar      1 L0N        -0.2611
      5 N3         52.6200   -2.3930  -20.6980 N.ar      1 L0N        -0.2721
      6 CBD        48.8080   -0.8890  -12.5800 C.3       1 L0N         0.0678
      7 CBF        47.9620   -0.7450  -11.3250 C.3       1 L0N        -0.0118
      8 NBG        47.8290    0.6720  -10.9420 N.4       1 L0N         0.2359
      9 CBI        46.9220    0.7700   -9.7900 C.3       1 L0N        -0.0430
     10 CBH        47.2880    1.4730  -12.0560 C.3       1 L0N        -0.0118
     11 CBE        48.1240    1.2940  -13.3140 C.3       1 L0N         0.0678
     12 NBC        48.1490   -0.1410  -13.6680 N.pl3     1 L0N        -0.2967
     13 CAQ        48.6340   -0.3830  -14.8980 C.ar      1 L0N         0.0441
     14 CAR        49.4970   -1.4480  -15.1360 C.ar      1 L0N        -0.0409
     15 CAS        49.9840   -1.6730  -16.4190 C.ar      1 L0N        -0.0607
     16 CAP        48.2580    0.4400  -15.9520 C.ar      1 L0N        -0.0409
     17 CAO        48.7470    0.2110  -17.2320 C.ar      1 L0N        -0.0607
     18 CAJ        49.6010   -0.8590  -17.4810 C.ar      1 L0N        -0.0012
     19 CAH        50.1180   -1.1160  -18.6880 C.2       1 L0N         0.0758
     20 NAG        51.2840   -1.7330  -18.8030 N.pl3     1 L0N        -0.2563
     21 C2         52.7150   -2.4010  -22.0820 C.ar      1 L0N         0.0549
     22 OAL        49.6290   -0.7330  -22.8470 O.3       1 L0N        -0.2913
     23 CAM        50.2390    0.2320  -23.7120 C.3       1 L0N         0.0798
     24 CAN        49.1970    0.8180  -24.6600 C.3       1 L0N        -0.0177
     25 CBL        49.8690    1.8380  -25.5830 C.3       1 L0N        -0.0601
     26 CBK        48.5900   -0.3140  -25.4910 C.3       1 L0N        -0.0601
     27 CAI        49.6630   -0.8380  -19.9170 C.2       1 L0N         0.0001
     28 CAK        48.5190   -0.2160  -20.2370 C.ar      1 L0N        -0.0521
     29 CAT        48.5690    1.0720  -20.7520 C.ar      1 L0N        -0.0443
     30 CAX        47.2770   -0.8220  -20.0590 C.ar      1 L0N        -0.0786
     31 CAW        46.1150   -0.1340  -20.4030 C.ar      1 L0N        -0.0809
     32 CAV        46.1740    1.1560  -20.9260 C.ar      1 L0N        -0.0469
     33 CAU        47.4140    1.7640  -21.0950 C.ar      1 L0N         0.0596
     34 NAY        47.5480    2.9920  -21.5990 N.am      1 L0N        -0.2355
     35 CAZ        47.3990    4.0600  -20.7990 C.2       1 L0N         0.2031
     36 OBJ        47.1100    4.0100  -19.6050 O.2       1 L0N        -0.3850
     37 CBA        47.6190    5.4050  -21.4950 C.3       1 L0N         0.0403
     38 CBB        48.0800    5.3150  -22.9530 C.3       1 L0N        -0.0477
     39 H1         48.8895   -1.9511  -12.8544 H         1 L0N         0.0569
     40 H2         49.8127   -0.4784  -12.4011 H         1 L0N         0.0569
     41 H3         48.4402   -1.2973  -10.5026 H         1 L0N         0.0834
     42 H4         46.9621   -1.1625  -11.5144 H         1 L0N         0.0834
     43 H5         48.7356    1.0320  -10.6878 H         1 L0N         0.2032
     44 H6         46.8157    1.8246   -9.4958 H         1 L0N         0.0778
     45 H7         47.3347    0.1944   -8.9484 H         1 L0N         0.0778
     46 H8         45.9367    0.3646  -10.0635 H         1 L0N         0.0778
     47 H9         47.2917    2.5352  -11.7701 H         1 L0N         0.0834
     48 H10        46.2561    1.1522  -12.2615 H         1 L0N         0.0834
     49 H11        49.1493    1.6475  -13.1302 H         1 L0N         0.0569
     50 H12        47.6796    1.8706  -14.1386 H         1 L0N         0.0569
     51 H13        49.7895   -2.1017  -14.3222 H         1 L0N         0.0527
     52 H14        50.6709   -2.4931  -16.5943 H         1 L0N         0.0602
     53 H15        47.5788    1.2660  -15.7746 H         1 L0N         0.0527
     54 H16        48.4611    0.8710  -18.0430 H         1 L0N         0.0602
     55 H17        51.8722   -2.0674  -18.0264 H         1 L0N         0.2307
     56 H18        53.5701   -2.8389  -22.5841 H         1 L0N         0.0985
     57 H19        51.0319   -0.2549  -24.2988 H         1 L0N         0.0630
     58 H20        50.6749    1.0399  -23.1060 H         1 L0N         0.0630
     59 H21        48.4053    1.3141  -24.0794 H         1 L0N         0.0322
     60 H22        49.1199    2.2622  -26.2677 H         1 L0N         0.0233
     61 H23        50.6585    1.3409  -26.1657 H         1 L0N         0.0233
     62 H24        50.3113    2.6437  -24.9788 H         1 L0N         0.0233
     63 H25        48.1091   -1.0428  -24.8219 H         1 L0N         0.0233
     64 H26        49.3837   -0.8127  -26.0665 H         1 L0N         0.0233
     65 H27        47.8406    0.0995  -26.1820 H         1 L0N         0.0233
     66 H28        49.5324    1.5495  -20.8899 H         1 L0N         0.0441
     67 H29        47.2148   -1.8256  -19.6541 H         1 L0N         0.0444
     68 H30        45.1511   -0.6094  -20.2616 H         1 L0N         0.0564
     69 H31        45.2647    1.6797  -21.1980 H         1 L0N         0.0459
     70 H32        47.7585    3.1165  -22.5686 H         1 L0N         0.2253
     71 H33        48.3823    5.9601  -20.9301 H         1 L0N         0.0505
     72 H34        46.6696    5.9600  -21.4716 H         1 L0N         0.0505
     73 H35        48.2087    6.3288  -23.3601 H         1 L0N         0.0254
     74 H36        47.3248    4.7758  -23.5437 H         1 L0N         0.0254
     75 H37        49.0376    4.7759  -23.0022 H         1 L0N         0.0254
@<TRIPOS>BOND
     1    1    2 ar 
     2    1    5 ar 
     3   20    1 1  
     4    2    3 ar 
     5    2   27 1  
     6    3    4 ar 
     7    3   22 1  
     8   21    4 ar 
     9    5   21 ar 
    10    6    7 1  
    11   12    6 1  
    12    7    8 1  
    13    8    9 1  
    14   10    8 1  
    15   11   10 1  
    16   12   11 1  
    17   13   12 1  
    18   14   13 ar 
    19   16   13 ar 
    20   15   14 ar 
    21   18   15 ar 
    22   17   16 ar 
    23   18   17 ar 
    24   19   18 1  
    25   19   20 1  
    26   19   27 2  
    27   22   23 1  
    28   23   24 1  
    29   24   25 1  
    30   24   26 1  
    31   27   28 1  
    32   28   29 ar 
    33   28   30 ar 
    34   29   33 ar 
    35   30   31 ar 
    36   31   32 ar 
    37   32   33 ar 
    38   33   34 1  
    39   34   35 am 
    40   35   36 2  
    41   35   37 1  
    42   37   38 1  
    43    6   39 1  
    44    6   40 1  
    45    7   41 1  
    46    7   42 1  
    47    8   43 1  
    48    9   44 1  
    49    9   45 1  
    50    9   46 1  
    51   10   47 1  
    52   10   48 1  
    53   11   49 1  
    54   11   50 1  
    55   14   51 1  
    56   15   52 1  
    57   16   53 1  
    58   17   54 1  
    59   20   55 1  
    60   21   56 1  
    61   23   57 1  
    62   23   58 1  
    63   24   59 1  
    64   25   60 1  
    65   25   61 1  
    66   25   62 1  
    67   26   63 1  
    68   26   64 1  
    69   26   65 1  
    70   29   66 1  
    71   30   67 1  
    72   31   68 1  
    73   32   69 1  
    74   34   70 1  
    75   37   71 1  
    76   37   72 1  
    77   38   73 1  
    78   38   74 1  
    79   38   75 1  
@<TRIPOS>SUBSTRUCTURE
     1 L0N         1

