### 
### Created by X-TOOL on Mon Aug  2 16:16:50 2021
### 

@<TRIPOS>MOLECULE
6s90_ligand
   83    88     1     0     0
SMALL
GAST_HUCK


@<TRIPOS>ATOM
      1 C1         14.5140  -12.5740   -6.4840 C.ar      1 L0Z        -0.0087
      2 C2         15.2760  -11.4070   -6.2640 C.ar      1 L0Z         0.0739
      3 C3         14.8080  -10.1440   -6.6400 C.ar      1 L0Z        -0.0437
      4 O1         17.7480  -11.1160   -7.6050 O.2       1 L0Z        -0.3622
      5 C11        10.1290  -12.4260   -6.3100 C.2       1 L0Z        -0.0377
      6 C12        10.9650  -13.4410   -6.8640 C.ar      1 L0Z         0.0320
      7 C13         7.6200  -12.2710   -5.8080 C.ar      1 L0Z         0.0115
      8 C14         6.3850  -12.9100   -5.9160 C.ar      1 L0Z        -0.0467
      9 C15         5.2320  -12.2990   -5.4510 C.ar      1 L0Z        -0.0421
     10 C16         5.2810  -11.0250   -4.8780 C.ar      1 L0Z         0.0490
     11 C17         6.5140  -10.3760   -4.7930 C.ar      1 L0Z        -0.0421
     12 C18         7.6660  -10.9880   -5.2560 C.ar      1 L0Z        -0.0467
     13 C19         4.0540  -10.2960   -4.4260 C.2       1 L0Z         0.2068
     14 C20         1.8880  -10.2490   -3.3130 C.3       1 L0Z         0.0735
     15 C21         0.7330  -11.2340   -3.3580 C.3       1 L0Z        -0.0113
     16 C22        -0.1800  -13.2620   -2.4360 C.3       1 L0Z        -0.0430
     17 C23         2.1810  -13.0640   -2.8770 C.3       1 L0Z        -0.0113
     18 C24         3.3960  -12.1400   -2.8320 C.3       1 L0Z         0.0735
     19 C25        17.7220  -11.3630   -6.4060 C.2       1 L0Z         0.2497
     20 C26        18.9920  -11.4890   -5.6250 C.ar      1 L0Z         0.0828
     21 C27        20.2240  -11.4400   -6.2820 C.ar      1 L0Z        -0.0139
     22 C28        21.4090  -11.5420   -5.5700 C.ar      1 L0Z        -0.0356
     23 C29        21.4040  -11.6700   -4.1790 C.ar      1 L0Z        -0.0451
     24 C30        20.1670  -11.7240   -3.5300 C.ar      1 L0Z        -0.0356
     25 C31        18.9820  -11.6370   -4.2400 C.ar      1 L0Z        -0.0139
     26 C32        22.7070  -11.7420   -3.3650 C.3       1 L0Z        -0.0435
     27 C35        22.7950  -13.0840   -2.6110 C.3       1 L0Z        -0.0831
     28 C34        22.7430  -10.6100   -2.3320 C.3       1 L0Z        -0.0831
     29 C33        23.9530  -11.6100   -4.2610 C.3       1 L0Z        -0.0831
     30 N5         16.5720  -11.5250   -5.7090 N.am      1 L0Z        -0.2317
     31 C4         13.5820  -10.0280   -7.2740 C.ar      1 L0Z        -0.0779
     32 C5         12.8190  -11.1540   -7.5240 C.ar      1 L0Z        -0.0698
     33 C6         13.2540  -12.4230   -7.1220 C.ar      1 L0Z        -0.0071
     34 C          15.0140  -13.9210   -6.0130 C.3       1 L0Z        -0.0317
     35 C7         12.3100  -13.5690   -7.2720 C.ar      1 L0Z         0.0489
     36 C9         10.1510  -14.5660   -7.1000 C.ar      1 L0Z         0.1490
     37 N1         10.5680  -15.7310   -7.6380 N.ar      1 L0Z        -0.2583
     38 C8         11.8690  -15.7240   -7.9480 C.ar      1 L0Z         0.0653
     39 N          12.7490  -14.7200   -7.8220 N.ar      1 L0Z        -0.2832
     40 C10         8.8620  -12.9380   -6.2340 C.2       1 L0Z         0.0754
     41 N2          8.8780  -14.2480   -6.6990 N.pl3     1 L0Z        -0.2538
     42 O           3.8870   -9.1490   -4.7990 O.2       1 L0Z        -0.3852
     43 N3          3.1580  -10.9270   -3.6330 N.am      1 L0Z        -0.2625
     44 N4          0.9740  -12.3560   -2.4560 N.4       1 L0Z         0.2359
     45 H1         15.4017   -9.2602   -6.4363 H         1 L0Z         0.0509
     46 H2         10.4413  -11.4285   -6.0042 H         1 L0Z         0.0381
     47 H3          6.3269  -13.8936   -6.3679 H         1 L0Z         0.0634
     48 H4          4.2818  -12.8143   -5.5323 H         1 L0Z         0.0666
     49 H5          6.5698   -9.3836   -4.3604 H         1 L0Z         0.0666
     50 H6          8.6140  -10.4665   -5.1897 H         1 L0Z         0.0634
     51 H7          1.9539   -9.8142   -2.3047 H         1 L0Z         0.0575
     52 H8          1.7101   -9.4488   -4.0465 H         1 L0Z         0.0575
     53 H9          0.6224  -11.6137   -4.3844 H         1 L0Z         0.0834
     54 H10        -0.1914  -10.7201   -3.0555 H         1 L0Z         0.0834
     55 H11         0.0226  -14.0987   -1.7513 H         1 L0Z         0.0778
     56 H12        -0.3576  -13.6520   -3.4491 H         1 L0Z         0.0778
     57 H13        -1.0701  -12.7145   -2.0926 H         1 L0Z         0.0778
     58 H14         2.3517  -13.9171   -2.2040 H         1 L0Z         0.0834
     59 H15         2.0441  -13.4298   -3.9053 H         1 L0Z         0.0834
     60 H16         4.2699  -12.6729   -3.2348 H         1 L0Z         0.0575
     61 H17         3.5914  -11.8511   -1.7888 H         1 L0Z         0.0575
     62 H18        20.2535  -11.3211   -7.3591 H         1 L0Z         0.0741
     63 H19        22.3540  -11.5221   -6.1008 H         1 L0Z         0.0854
     64 H20        20.1353  -11.8359   -2.4523 H         1 L0Z         0.0854
     65 H21        18.0361  -11.6845   -3.7126 H         1 L0Z         0.0741
     66 H22        23.7311  -13.1199   -2.0345 H         1 L0Z         0.0139
     67 H23        22.7778  -13.9127   -3.3341 H         1 L0Z         0.0139
     68 H24        21.9390  -13.1768   -1.9264 H         1 L0Z         0.0139
     69 H25        22.6813   -9.6406   -2.8481 H         1 L0Z         0.0139
     70 H26        23.6826  -10.6630   -1.7625 H         1 L0Z         0.0139
     71 H27        21.8909  -10.7140   -1.6442 H         1 L0Z         0.0139
     72 H28        23.9507  -12.4130   -5.0128 H         1 L0Z         0.0139
     73 H29        24.8593  -11.6892   -3.6427 H         1 L0Z         0.0139
     74 H30        23.9387  -10.6336   -4.7674 H         1 L0Z         0.0139
     75 H31        16.6439  -11.7429   -4.7357 H         1 L0Z         0.2238
     76 H32        13.2195   -9.0518   -7.5751 H         1 L0Z         0.0532
     77 H33        11.8703  -11.0528   -8.0387 H         1 L0Z         0.0506
     78 H34        16.0053  -13.8031   -5.5511 H         1 L0Z         0.0377
     79 H35        15.0884  -14.6051   -6.8712 H         1 L0Z         0.0377
     80 H36        14.3121  -14.3348   -5.2740 H         1 L0Z         0.0377
     81 H37        12.2628  -16.6490   -8.3533 H         1 L0Z         0.1020
     82 H38         8.0646  -14.8788   -6.7365 H         1 L0Z         0.2304
     83 H39         1.1161  -11.9986   -1.5243 H         1 L0Z         0.2032
@<TRIPOS>BOND
     1    1    2 ar 
     2   33    1 ar 
     3    1   34 1  
     4    2    3 ar 
     5    2   30 1  
     6   31    3 ar 
     7   19    4 2  
     8    6    5 1  
     9    5   40 2  
    10   35    6 ar 
    11    6   36 ar 
    12    7    8 ar 
    13    7   12 ar 
    14   40    7 1  
    15    8    9 ar 
    16    9   10 ar 
    17   11   10 ar 
    18   10   13 1  
    19   12   11 ar 
    20   13   42 2  
    21   13   43 am 
    22   14   15 1  
    23   43   14 1  
    24   15   44 1  
    25   44   16 1  
    26   18   17 1  
    27   17   44 1  
    28   43   18 1  
    29   19   20 1  
    30   30   19 am 
    31   20   21 ar 
    32   20   25 ar 
    33   21   22 ar 
    34   22   23 ar 
    35   24   23 ar 
    36   23   26 1  
    37   25   24 ar 
    38   26   27 1  
    39   26   28 1  
    40   26   29 1  
    41   32   31 ar 
    42   33   32 ar 
    43   33   35 1  
    44   35   39 ar 
    45   36   37 ar 
    46   36   41 1  
    47   37   38 ar 
    48   38   39 ar 
    49   40   41 1  
    50    3   45 1  
    51    5   46 1  
    52    8   47 1  
    53    9   48 1  
    54   11   49 1  
    55   12   50 1  
    56   14   51 1  
    57   14   52 1  
    58   15   53 1  
    59   15   54 1  
    60   16   55 1  
    61   16   56 1  
    62   16   57 1  
    63   17   58 1  
    64   17   59 1  
    65   18   60 1  
    66   18   61 1  
    67   21   62 1  
    68   22   63 1  
    69   24   64 1  
    70   25   65 1  
    71   27   66 1  
    72   27   67 1  
    73   27   68 1  
    74   28   69 1  
    75   28   70 1  
    76   28   71 1  
    77   29   72 1  
    78   29   73 1  
    79   29   74 1  
    80   30   75 1  
    81   31   76 1  
    82   32   77 1  
    83   34   78 1  
    84   34   79 1  
    85   34   80 1  
    86   38   81 1  
    87   41   82 1  
    88   44   83 1  
@<TRIPOS>SUBSTRUCTURE
     1 L0Z         1

