### 
### Created by X-TOOL on Mon Aug  2 16:16:50 2021
### 

@<TRIPOS>MOLECULE
6s9b_ligand
   51    54     1     0     0
SMALL
GAST_HUCK


@<TRIPOS>ATOM
      1 C2        -54.5450   25.0960    1.0980 C.ar      1 L1H         0.1391
      2 C3        -53.7550   25.8070    0.1920 C.ar      1 L1H        -0.0147
      3 C4        -52.5750   25.2440   -0.3150 C.ar      1 L1H        -0.0069
      4 C5        -52.2120   23.9580    0.1010 C.ar      1 L1H        -0.0357
      5 C6        -52.9920   23.2320    1.0270 C.ar      1 L1H         0.0578
      6 C7        -54.1770   23.8190    1.5040 C.ar      1 L1H        -0.0069
      7 C8        -52.6410   21.8400    1.4400 C.2       1 L1H         0.2430
      8 O9        -53.1120   21.3680    2.4600 O.2       1 L1H        -0.3685
      9 N10       -51.8460   21.1010    0.6130 N.am      1 L1H        -0.1835
     10 C11       -51.4590   19.7790    0.7620 C.2       1 L1H         0.2430
     11 C15       -50.9510   15.3290    1.5210 C.ar      1 L1H        -0.0817
     12 C16       -49.8210   15.5280    0.7270 C.ar      1 L1H        -0.0795
     13 C17       -49.5250   16.7890    0.2230 C.ar      1 L1H        -0.0455
     14 C18       -50.3640   17.8700    0.4990 C.ar      1 L1H         0.0764
     15 C21       -49.5730   19.8230   -2.1960 C.3       1 L1H         0.0863
     16 C23       -50.5560   20.8950   -2.6700 C.3       1 L1H        -0.0339
     17 C27       -50.3800   25.9820   -3.3200 C.ar      1 L1H        -0.0338
     18 C30       -51.4720   27.3500   -1.2030 C.ar      1 L1H         0.0187
     19 F1        -55.6820   25.6450    1.5880 F         1 L1H        -0.1822
     20 N12       -52.1330   18.8630    1.4090 N.2       1 L1H        -0.3139
     21 C13       -51.5060   17.6690    1.3020 C.ar      1 L1H         0.0087
     22 C14       -51.7890   16.3920    1.8100 C.ar      1 L1H        -0.0704
     23 N19       -50.3650   19.2170    0.1500 N.pl3     1 L1H        -0.2114
     24 C20       -49.3480   19.9060   -0.6740 C.3       1 L1H         0.0851
     25 C22       -48.2460   20.0850   -2.9140 C.3       1 L1H        -0.0339
     26 O24       -50.0550   18.5310   -2.5890 O.3       1 L1H        -0.3865
     27 C25       -51.7210   25.9740   -1.3040 C.ar      1 L1H         0.0097
     28 C26       -51.1620   25.2840   -2.4070 C.ar      1 L1H        -0.0350
     29 C28       -50.1780   27.3430   -3.1360 C.ar      1 L1H         0.0108
     30 N29       -50.7210   27.9740   -2.1020 N.ar      1 L1H        -0.2963
     31 H1        -54.0558   26.8002   -0.1212 H         1 L1H         0.0651
     32 H2        -51.3098   23.5084   -0.2976 H         1 L1H         0.0651
     33 H3        -54.8086   23.2712    2.1939 H         1 L1H         0.0662
     34 H4        -51.5007   21.5708   -0.1995 H         1 L1H         0.2400
     35 H5        -51.1725   14.3423    1.9113 H         1 L1H         0.0506
     36 H6        -49.1686   14.6922    0.5014 H         1 L1H         0.0508
     37 H7        -48.6401   16.9335   -0.3862 H         1 L1H         0.0529
     38 H8        -50.6951   20.8096   -3.7578 H         1 L1H         0.0258
     39 H9        -50.1568   21.8911   -2.4285 H         1 L1H         0.0258
     40 H10       -51.5229   20.7551   -2.1646 H         1 L1H         0.0258
     41 H11       -49.9336   25.4701   -4.1648 H         1 L1H         0.0709
     42 H12       -51.8985   27.9117   -0.3798 H         1 L1H         0.0831
     43 H13       -52.6650   16.2378    2.4296 H         1 L1H         0.0510
     44 H14       -49.3407   20.9682   -0.3882 H         1 L1H         0.0623
     45 H15       -48.3682   19.4592   -0.4497 H         1 L1H         0.0623
     46 H16       -48.4000   20.0271   -4.0016 H         1 L1H         0.0258
     47 H17       -47.5078   19.3293   -2.6075 H         1 L1H         0.0258
     48 H18       -47.8771   21.0868   -2.6487 H         1 L1H         0.0258
     49 H19       -50.8810   18.3564   -2.1534 H         1 L1H         0.2102
     50 H20       -51.3419   24.2231   -2.5380 H         1 L1H         0.0741
     51 H21       -49.5709   27.8960   -3.8436 H         1 L1H         0.0820
@<TRIPOS>BOND
     1    2    1 ar 
     2    1    6 ar 
     3    1   19 1  
     4    3    2 ar 
     5    3    4 ar 
     6   27    3 1  
     7    4    5 ar 
     8    5    6 ar 
     9    5    7 1  
    10    7    8 2  
    11    7    9 am 
    12    9   10 1  
    13   10   20 2  
    14   10   23 1  
    15   12   11 ar 
    16   22   11 ar 
    17   13   12 ar 
    18   14   13 ar 
    19   14   21 ar 
    20   23   14 1  
    21   15   16 1  
    22   24   15 1  
    23   15   25 1  
    24   15   26 1  
    25   28   17 ar 
    26   17   29 ar 
    27   27   18 ar 
    28   18   30 ar 
    29   20   21 1  
    30   21   22 ar 
    31   23   24 1  
    32   27   28 ar 
    33   29   30 ar 
    34    2   31 1  
    35    4   32 1  
    36    6   33 1  
    37    9   34 1  
    38   11   35 1  
    39   12   36 1  
    40   13   37 1  
    41   16   38 1  
    42   16   39 1  
    43   16   40 1  
    44   17   41 1  
    45   18   42 1  
    46   22   43 1  
    47   24   44 1  
    48   24   45 1  
    49   25   46 1  
    50   25   47 1  
    51   25   48 1  
    52   26   49 1  
    53   28   50 1  
    54   29   51 1  
@<TRIPOS>SUBSTRUCTURE
     1 L1H         1

