### 
### Created by X-TOOL on Mon Aug  2 16:16:50 2021
### 

@<TRIPOS>MOLECULE
6s9c_ligand
   51    54     1     0     0
SMALL
GAST_HUCK


@<TRIPOS>ATOM
      1 C1        -18.6160  -48.1380   -1.5630 C.3       1 L1K        -0.0339
      2 C2        -19.5260  -49.2580   -2.0930 C.3       1 L1K         0.0863
      3 C3        -20.8220  -48.6170   -2.6370 C.3       1 L1K        -0.0339
      4 C5        -19.9680  -50.3300   -1.0790 C.3       1 L1K         0.0851
      5 C7        -17.8010  -50.9230    0.3820 C.ar      1 L1K         0.0765
      6 C8        -16.6440  -50.1910    0.0660 C.ar      1 L1K        -0.0455
      7 C11       -16.4770  -52.0650    2.1060 C.ar      1 L1K        -0.0704
      8 C12       -17.6890  -51.8740    1.4270 C.ar      1 L1K         0.0088
      9 N13       -18.8870  -52.4700    1.5800 N.2       1 L1K        -0.3138
     10 C16       -21.7520  -53.2890    1.3410 C.2       1 L1K         0.2534
     11 C18       -23.1850  -53.5890    0.9980 C.ar      1 L1K         0.0774
     12 C19       -23.8280  -54.7090    1.5550 C.ar      1 L1K        -0.0146
     13 C23       -23.9220  -52.8640    0.0320 C.ar      1 L1K        -0.0068
     14 C24       -26.0370  -52.4390   -1.3260 C.ar      1 L1K         0.0006
     15 C27       -27.5550  -51.0330   -3.2420 C.ar      1 L1K        -0.0601
     16 O4        -18.8840  -49.9280   -3.1800 O.3       1 L1K        -0.3865
     17 N6        -19.1360  -51.0120   -0.0530 N.pl3     1 L1K        -0.2114
     18 C9        -15.4500  -50.3910    0.7390 C.ar      1 L1K        -0.0794
     19 C10       -15.3650  -51.3270    1.7610 C.ar      1 L1K        -0.0817
     20 C14       -19.7380  -51.9810    0.7280 C.2       1 L1K         0.2433
     21 N15       -21.0760  -52.3670    0.6020 N.am      1 L1K        -0.1817
     22 O17       -21.1810  -53.9350    2.2070 O.2       1 L1K        -0.3633
     23 C20       -25.1330  -55.0120    1.1900 C.ar      1 L1K         0.0151
     24 N21       -25.7820  -54.2870    0.2920 N.ar      1 L1K        -0.2874
     25 C22       -25.2430  -53.2180   -0.3050 C.ar      1 L1K         0.0579
     26 C25       -25.4380  -51.4950   -2.1970 C.ar      1 L1K        -0.0507
     27 C26       -26.1930  -50.8030   -3.1320 C.ar      1 L1K        -0.0593
     28 C28       -28.1630  -51.9590   -2.4090 C.ar      1 L1K        -0.0593
     29 C29       -27.4230  -52.6580   -1.4690 C.ar      1 L1K        -0.0507
     30 H1        -18.3750  -47.4434   -2.3812 H         1 L1K         0.0258
     31 H2        -17.6873  -48.5760   -1.1684 H         1 L1K         0.0258
     32 H3        -19.1345  -47.5932   -0.7603 H         1 L1K         0.0258
     33 H4        -21.4871  -49.4043   -3.0214 H         1 L1K         0.0258
     34 H5        -20.5727  -47.9187   -3.4495 H         1 L1K         0.0258
     35 H6        -21.3292  -48.0716   -1.8275 H         1 L1K         0.0258
     36 H7        -20.3764  -51.1452   -1.6944 H         1 L1K         0.0623
     37 H8        -20.7818  -49.8573   -0.5096 H         1 L1K         0.0623
     38 H9        -16.6869  -49.4508   -0.7248 H         1 L1K         0.0529
     39 H10       -16.4144  -52.7953    2.9047 H         1 L1K         0.0510
     40 H11       -23.3051  -55.3353    2.2688 H         1 L1K         0.0753
     41 H12       -23.4592  -52.0163   -0.4602 H         1 L1K         0.0766
     42 H13       -28.1417  -50.4917   -3.9754 H         1 L1K         0.0631
     43 H14       -18.0815  -50.3323   -2.8717 H         1 L1K         0.2102
     44 H15       -14.5751  -49.8123    0.4657 H         1 L1K         0.0508
     45 H16       -14.4282  -51.4768    2.2854 H         1 L1K         0.0506
     46 H17       -21.5994  -51.9108   -0.1177 H         1 L1K         0.2402
     47 H18       -25.6302  -55.8587    1.6492 H         1 L1K         0.0835
     48 H19       -24.3718  -51.3108   -2.1312 H         1 L1K         0.0639
     49 H20       -25.7149  -50.0779   -3.7806 H         1 L1K         0.0622
     50 H21       -29.2287  -52.1383   -2.4938 H         1 L1K         0.0622
     51 H22       -27.9169  -53.3843   -0.8337 H         1 L1K         0.0639
@<TRIPOS>BOND
     1    2    1 1  
     2    2    3 1  
     3    4    2 1  
     4    2   16 1  
     5   17    4 1  
     6    5    6 ar 
     7    5    8 ar 
     8   17    5 1  
     9    6   18 ar 
    10    8    7 ar 
    11    7   19 ar 
    12    9    8 1  
    13   20    9 2  
    14   11   10 1  
    15   10   21 am 
    16   10   22 2  
    17   11   12 ar 
    18   13   11 ar 
    19   23   12 ar 
    20   25   13 ar 
    21   14   25 1  
    22   26   14 ar 
    23   14   29 ar 
    24   27   15 ar 
    25   15   28 ar 
    26   20   17 1  
    27   18   19 ar 
    28   21   20 1  
    29   24   23 ar 
    30   25   24 ar 
    31   26   27 ar 
    32   28   29 ar 
    33    1   30 1  
    34    1   31 1  
    35    1   32 1  
    36    3   33 1  
    37    3   34 1  
    38    3   35 1  
    39    4   36 1  
    40    4   37 1  
    41    6   38 1  
    42    7   39 1  
    43   12   40 1  
    44   13   41 1  
    45   15   42 1  
    46   16   43 1  
    47   18   44 1  
    48   19   45 1  
    49   21   46 1  
    50   23   47 1  
    51   26   48 1  
    52   27   49 1  
    53   28   50 1  
    54   29   51 1  
@<TRIPOS>SUBSTRUCTURE
     1 L1K         1

