### 
### Created by X-TOOL on Mon Aug  2 16:16:50 2021
### 

@<TRIPOS>MOLECULE
6s9d_ligand
   52    56     1     0     0
SMALL
GAST_HUCK


@<TRIPOS>ATOM
      1 C2        -22.1350  -53.5610    1.3000 C.2       1 L3Z         0.2529
      2 C4        -20.1670  -52.1550    0.8400 C.2       1 L3Z         0.2432
      3 C6        -18.0400  -52.2560    1.2240 C.ar      1 L3Z         0.0088
      4 C7        -16.7510  -52.5530    1.6660 C.ar      1 L3Z        -0.0704
      5 C8        -15.6840  -51.7690    1.2690 C.ar      1 L3Z        -0.0817
      6 C11       -18.2490  -51.1540    0.3790 C.ar      1 L3Z         0.0764
      7 C15       -22.1800  -49.9670   -2.3210 C.3       1 L3Z        -0.0482
      8 C16       -22.7100  -50.2570   -3.7340 C.3       1 L3Z        -0.0247
      9 C17       -23.3250  -51.6480   -3.8810 C.3       1 L3Z         0.0718
     10 C19       -25.5000  -51.9440   -2.6620 C.ar      1 L3Z         0.1053
     11 C21       -27.6260  -51.1330   -3.4850 C.ar      1 L3Z        -0.0683
     12 C23       -27.5790  -52.5670   -1.5640 C.ar      1 L3Z        -0.0583
     13 C24       -26.1760  -52.6390   -1.6230 C.ar      1 L3Z         0.0310
     14 C27       -25.4580  -55.3480    0.7700 C.ar      1 L3Z         0.0127
     15 C30       -24.2040  -53.1220   -0.1290 C.ar      1 L3Z        -0.0099
     16 O1        -21.5560  -54.2940    2.0790 O.2       1 L3Z        -0.3633
     17 N3        -21.4900  -52.5090    0.7280 N.am      1 L3Z        -0.1818
     18 N5        -19.2340  -52.8380    1.4350 N.2       1 L3Z        -0.3138
     19 C9        -15.8880  -50.6790    0.4320 C.ar      1 L3Z        -0.0794
     20 C10       -17.1650  -50.3670   -0.0070 C.ar      1 L3Z        -0.0455
     21 N12       -19.6030  -51.1320    0.1190 N.pl3     1 L3Z        -0.2142
     22 C13       -20.2930  -50.1370   -0.7120 C.3       1 L3Z         0.0570
     23 C14       -20.8670  -50.7070   -2.0210 C.3       1 L3Z        -0.0267
     24 O18       -24.1320  -52.0000   -2.7410 O.3       1 L3Z        -0.3139
     25 C20       -26.2490  -51.1830   -3.5770 C.ar      1 L3Z        -0.0292
     26 C22       -28.2830  -51.8190   -2.4840 C.ar      1 L3Z        -0.0699
     27 C25       -25.4740  -53.4780   -0.5990 C.ar      1 L3Z         0.0539
     28 N26       -26.0560  -54.5890   -0.1270 N.ar      1 L3Z        -0.2913
     29 C28       -24.1970  -55.0430    1.2710 C.ar      1 L3Z        -0.0165
     30 C29       -23.5350  -53.8770    0.8610 C.ar      1 L3Z         0.0754
     31 H1        -16.5856  -53.4000    2.3219 H         1 L3Z         0.0510
     32 H2        -14.6834  -52.0057    1.6123 H         1 L3Z         0.0506
     33 H3        -22.9377  -50.2822   -1.5885 H         1 L3Z         0.0267
     34 H4        -22.0049  -48.8853   -2.2251 H         1 L3Z         0.0267
     35 H5        -21.8745  -50.1690   -4.4441 H         1 L3Z         0.0291
     36 H6        -23.4788  -49.5090   -3.9778 H         1 L3Z         0.0291
     37 H7        -22.5158  -52.3857   -3.9856 H         1 L3Z         0.0617
     38 H8        -23.9555  -51.6650   -4.7822 H         1 L3Z         0.0617
     39 H9        -28.1937  -50.5519   -4.2028 H         1 L3Z         0.0606
     40 H10       -28.1121  -53.1045   -0.7881 H         1 L3Z         0.0611
     41 H11       -25.9647  -56.2369    1.1279 H         1 L3Z         0.0829
     42 H12       -23.7198  -52.2418   -0.5362 H         1 L3Z         0.0749
     43 H13       -22.0516  -51.9161    0.1509 H         1 L3Z         0.2402
     44 H14       -15.0461  -50.0709    0.1215 H         1 L3Z         0.0508
     45 H15       -17.3212  -49.5096   -0.6516 H         1 L3Z         0.0529
     46 H16       -19.5771  -49.3413   -0.9655 H         1 L3Z         0.0594
     47 H17       -21.1217  -49.7119   -0.1268 H         1 L3Z         0.0594
     48 H18       -20.1527  -50.5493   -2.8425 H         1 L3Z         0.0290
     49 H19       -21.0621  -51.7834   -1.9063 H         1 L3Z         0.0290
     50 H20       -25.7418  -50.6315   -4.3604 H         1 L3Z         0.0548
     51 H21       -29.3640  -51.7693   -2.4202 H         1 L3Z         0.0532
     52 H22       -23.7235  -55.7102    1.9821 H         1 L3Z         0.0738
@<TRIPOS>BOND
     1    1   16 2  
     2    1   17 am 
     3   30    1 1  
     4   17    2 1  
     5    2   18 2  
     6    2   21 1  
     7    3    4 ar 
     8    6    3 ar 
     9   18    3 1  
    10    4    5 ar 
    11   19    5 ar 
    12    6   20 ar 
    13   21    6 1  
    14    8    7 1  
    15    7   23 1  
    16    9    8 1  
    17   24    9 1  
    18   13   10 ar 
    19   10   24 1  
    20   10   25 ar 
    21   25   11 ar 
    22   26   11 ar 
    23   13   12 ar 
    24   12   26 ar 
    25   27   13 1  
    26   28   14 ar 
    27   14   29 ar 
    28   27   15 ar 
    29   15   30 ar 
    30   20   19 ar 
    31   21   22 1  
    32   22   23 1  
    33   27   28 ar 
    34   29   30 ar 
    35    4   31 1  
    36    5   32 1  
    37    7   33 1  
    38    7   34 1  
    39    8   35 1  
    40    8   36 1  
    41    9   37 1  
    42    9   38 1  
    43   11   39 1  
    44   12   40 1  
    45   14   41 1  
    46   15   42 1  
    47   17   43 1  
    48   19   44 1  
    49   20   45 1  
    50   22   46 1  
    51   22   47 1  
    52   23   48 1  
    53   23   49 1  
    54   25   50 1  
    55   26   51 1  
    56   29   52 1  
@<TRIPOS>SUBSTRUCTURE
     1 L3Z         1

