### 
### Created by X-TOOL on Mon Aug  2 16:10:22 2021
### 

@<TRIPOS>MOLECULE
6s9w_ligand
   77    82     1     0     0
SMALL
GAST_HUCK


@<TRIPOS>ATOM
      1 CAA       -17.7340  -16.3760    7.9260 C.2       1 L1Z         0.2550
      2 CAB       -18.1350  -15.4260    6.9970 C.2       1 L1Z         0.1205
      3 CAD       -16.8470  -13.7500    8.0440 C.2       1 L1Z         0.0848
      4 CAE       -16.4030  -14.6710    9.0190 C.2       1 L1Z         0.0966
      5 CAG       -16.4850  -12.3980    7.9830 C.ar      1 L1Z        -0.0125
      6 CAH       -15.5270  -14.3660   10.0700 C.ar      1 L1Z        -0.0056
      7 CAI       -16.6590  -11.5400    9.0660 C.ar      1 L1Z        -0.0628
      8 CAJ       -16.2930  -10.2000    8.9630 C.ar      1 L1Z        -0.0697
      9 CAK       -15.7700   -9.7010    7.7720 C.ar      1 L1Z        -0.0696
     10 CAL       -15.6110  -10.5520    6.6870 C.ar      1 L1Z        -0.0697
     11 CAM       -15.9750  -11.8890    6.7930 C.ar      1 L1Z        -0.0628
     12 CAN       -15.8310  -14.7750   11.3670 C.ar      1 L1Z        -0.0623
     13 CAO       -14.9620  -14.4840   12.4200 C.ar      1 L1Z        -0.0575
     14 CAP       -13.7720  -13.7970   12.1830 C.ar      1 L1Z        -0.0009
     15 CAQ       -13.4630  -13.4020   10.8900 C.ar      1 L1Z        -0.0575
     16 CAR       -14.3280  -13.6950    9.8440 C.ar      1 L1Z        -0.0623
     17 CAS       -12.8850  -13.4860   13.2160 C.3       1 L1Z         0.0009
     18 CAU       -11.8450  -15.6190   13.5860 C.3       1 L1Z        -0.0279
     19 CAV       -11.6640  -16.7790   14.5480 C.3       1 L1Z         0.0159
     20 CAW       -11.0840  -16.2590   15.8570 C.3       1 L1Z         0.0754
     21 CAX       -11.9830  -15.1770   16.4300 C.3       1 L1Z         0.0159
     22 CAY       -12.1320  -14.0700   15.4070 C.3       1 L1Z        -0.0279
     23 CBA       -11.6720  -18.3180   17.2750 C.2       1 L1Z         0.3061
     24 CBC        -9.7900  -18.5790   18.2750 C.ar      1 L1Z         0.0774
     25 CBD        -9.7000  -17.5220   17.4630 C.ar      1 L1Z         0.0821
     26 CBE        -8.7410  -18.9510   19.0170 C.ar      1 L1Z        -0.0645
     27 CBF        -7.5300  -18.2580   18.9600 C.ar      1 L1Z        -0.0678
     28 CBG        -7.4450  -17.1390   18.1310 C.ar      1 L1Z         0.0386
     29 CBH        -8.5700  -16.8260   17.3770 C.ar      1 L1Z        -0.0325
     30 CBJ        -5.5420  -15.7800   18.8450 C.2       1 L1Z         0.1995
     31 CBK        -5.7500  -16.0110   20.3510 C.3       1 L1Z         0.0396
     32 CBL        -4.3710  -16.1900   21.0010 C.3       1 L1Z        -0.0478
     33 CBO       -19.0050  -15.7910    5.9730 C.2       1 L1Z        -0.0886
     34 NAC       -17.6860  -14.1650    7.0800 N.pl3     1 L1Z        -0.2798
     35 NAF       -16.8620  -15.9950    8.9490 N.am      1 L1Z        -0.2338
     36 NAT       -12.7290  -14.5940   14.1670 N.4       1 L1Z         0.2472
     37 NAZ       -10.8630  -17.3570   16.8370 N.am      1 L1Z        -0.2061
     38 NBB       -11.0240  -19.0770   18.1590 N.am      1 L1Z        -0.2278
     39 NBI        -6.3570  -16.3660   17.9210 N.am      1 L1Z        -0.2453
     40 OBM        -4.6040  -15.0670   18.4920 O.2       1 L1Z        -0.3867
     41 OBN       -12.8410  -18.4880   16.9210 O.2       1 L1Z        -0.3966
     42 OBP       -18.1380  -17.5360    7.8580 O.2       1 L1Z        -0.3725
     43 H1        -17.0803  -11.9159    9.9914 H         1 L1Z         0.0557
     44 H2        -16.4159   -9.5412    9.8150 H         1 L1Z         0.0596
     45 H3        -15.4896   -8.6569    7.6933 H         1 L1Z         0.0552
     46 H4        -15.2028  -10.1736    5.7568 H         1 L1Z         0.0596
     47 H5        -15.8600  -12.5440    5.9370 H         1 L1Z         0.0557
     48 H6        -16.7470  -15.3219   11.5592 H         1 L1Z         0.0579
     49 H7        -15.2138  -14.7939   13.4278 H         1 L1Z         0.0554
     50 H8        -12.5431  -12.8627   10.6952 H         1 L1Z         0.0554
     51 H9        -14.0657  -13.3966    8.8354 H         1 L1Z         0.0579
     52 H10       -13.2652  -12.6066   13.7564 H         1 L1Z         0.0978
     53 H11       -11.9023  -13.2523   12.7805 H         1 L1Z         0.0978
     54 H12       -12.2893  -15.9911   12.6511 H         1 L1Z         0.0815
     55 H13       -10.8636  -15.1704   13.3725 H         1 L1Z         0.0815
     56 H14       -10.9769  -17.5173   14.1089 H         1 L1Z         0.0344
     57 H15       -12.6378  -17.2531   14.7399 H         1 L1Z         0.0344
     58 H16       -10.1057  -15.8065   15.6375 H         1 L1Z         0.0625
     59 H17       -11.5341  -14.7724   17.3491 H         1 L1Z         0.0344
     60 H18       -12.9711  -15.6018   16.6608 H         1 L1Z         0.0344
     61 H19       -11.1412  -13.6484   15.1822 H         1 L1Z         0.0815
     62 H20       -12.7812  -13.2824   15.8171 H         1 L1Z         0.0815
     63 H21        -8.8328  -19.8072   19.6755 H         1 L1Z         0.0431
     64 H22        -6.6770  -18.5815   19.5454 H         1 L1Z         0.0352
     65 H23        -8.5247  -15.9848   16.6947 H         1 L1Z         0.0345
     66 H24        -6.3569  -16.9147   20.5093 H         1 L1Z         0.0504
     67 H25        -6.2612  -15.1437   20.7941 H         1 L1Z         0.0504
     68 H26        -4.4938  -16.3571   22.0813 H         1 L1Z         0.0254
     69 H27        -3.7677  -15.2851   20.8362 H         1 L1Z         0.0254
     70 H28        -3.8633  -17.0561   20.5514 H         1 L1Z         0.0254
     71 H29       -19.3242  -15.0514    5.2402 H         1 L1Z         0.0191
     72 H30       -19.3662  -16.8161    5.9049 H         1 L1Z         0.0191
     73 H31       -17.9983  -13.4841    6.3731 H         1 L1Z         0.2075
     74 H32       -16.5656  -16.6647    9.6300 H         1 L1Z         0.2277
     75 H33       -13.6295  -14.9998   14.3682 H         1 L1Z         0.2048
     76 H34       -11.3925  -19.8701   18.6440 H         1 L1Z         0.2205
     77 H35        -6.1180  -16.2021   16.9639 H         1 L1Z         0.2207
@<TRIPOS>BOND
     1    1    2 1  
     2   35    1 am 
     3    1   42 2  
     4    2   33 2  
     5   34    2 1  
     6    4    3 2  
     7    3    5 1  
     8    3   34 1  
     9    6    4 1  
    10    4   35 1  
    11    5    7 ar 
    12    5   11 ar 
    13   12    6 ar 
    14   16    6 ar 
    15    7    8 ar 
    16    8    9 ar 
    17   10    9 ar 
    18   11   10 ar 
    19   13   12 ar 
    20   14   13 ar 
    21   14   15 ar 
    22   17   14 1  
    23   15   16 ar 
    24   36   17 1  
    25   19   18 1  
    26   18   36 1  
    27   20   19 1  
    28   20   21 1  
    29   37   20 1  
    30   21   22 1  
    31   22   36 1  
    32   37   23 am 
    33   23   38 am 
    34   23   41 2  
    35   25   24 ar 
    36   26   24 ar 
    37   24   38 1  
    38   29   25 ar 
    39   25   37 1  
    40   27   26 ar 
    41   28   27 ar 
    42   28   29 ar 
    43   39   28 1  
    44   30   31 1  
    45   30   39 am 
    46   30   40 2  
    47   31   32 1  
    48    7   43 1  
    49    8   44 1  
    50    9   45 1  
    51   10   46 1  
    52   11   47 1  
    53   12   48 1  
    54   13   49 1  
    55   15   50 1  
    56   16   51 1  
    57   17   52 1  
    58   17   53 1  
    59   18   54 1  
    60   18   55 1  
    61   19   56 1  
    62   19   57 1  
    63   20   58 1  
    64   21   59 1  
    65   21   60 1  
    66   22   61 1  
    67   22   62 1  
    68   26   63 1  
    69   27   64 1  
    70   29   65 1  
    71   31   66 1  
    72   31   67 1  
    73   32   68 1  
    74   32   69 1  
    75   32   70 1  
    76   33   71 1  
    77   33   72 1  
    78   34   73 1  
    79   35   74 1  
    80   36   75 1  
    81   38   76 1  
    82   39   77 1  
@<TRIPOS>SUBSTRUCTURE
     1 L1Z         1

