### 
### Created by X-TOOL on Mon Aug  2 16:10:23 2021
### 

@<TRIPOS>MOLECULE
6s9x_ligand
   88    94     1     0     0
SMALL
GAST_HUCK


@<TRIPOS>ATOM
      1 CAA         1.5030   -0.2750   15.3510 C.2       1 L1W         0.1338
      2 CAB         2.4460   -0.6280   16.3040 C.2       1 L1W         0.2541
      3 CAD         4.0420    0.7810   15.1960 C.2       1 L1W         0.0997
      4 CAE         3.0630    1.1230   14.2390 C.2       1 L1W         0.0883
      5 CAG         5.3590    1.2410   15.2210 C.ar      1 L1W        -0.0019
      6 CAH         3.3320    2.0060   13.1770 C.ar      1 L1W        -0.0133
      7 CAI         5.8170    1.9020   16.3540 C.ar      1 L1W        -0.0583
      8 CAJ         7.1270    2.3650   16.4190 C.ar      1 L1W        -0.0664
      9 CAK         7.9890    2.1540   15.3510 C.ar      1 L1W        -0.0667
     10 CAL         7.5350    1.4850   14.2190 C.ar      1 L1W        -0.0664
     11 CAM         6.2260    1.0220   14.1540 C.ar      1 L1W        -0.0583
     12 CAN         3.9130    3.2520   13.4020 C.ar      1 L1W        -0.0659
     13 CAO         4.1870    4.1140   12.3480 C.ar      1 L1W        -0.0602
     14 CAP         3.8730    3.7680   11.0390 C.ar      1 L1W        -0.0033
     15 CAQ         3.2940    2.5260   10.7960 C.ar      1 L1W        -0.0602
     16 CAR         3.0240    1.6580   11.8610 C.ar      1 L1W        -0.0659
     17 CAS         4.1780    4.6590   10.0020 C.3       1 L1W        -0.0001
     18 CAU         2.2690    6.0260    9.6480 C.3       1 L1W        -0.0279
     19 CAV         1.1510    6.4360    8.7040 C.3       1 L1W         0.0159
     20 CAW         1.7230    6.8940    7.3590 C.3       1 L1W         0.0754
     21 CAX         2.5970    5.7940    6.7980 C.3       1 L1W         0.0159
     22 CAY         3.6680    5.4540    7.8220 C.3       1 L1W        -0.0279
     23 CBA        -0.5260    6.7130    6.1590 C.2       1 L1W         0.3061
     24 CBC        -0.4210    8.3770    4.8400 C.ar      1 L1W         0.0774
     25 CBD         0.7180    8.3390    5.5470 C.ar      1 L1W         0.0821
     26 CBE        -0.6420    9.3120    3.9200 C.ar      1 L1W        -0.0645
     27 CBF         0.3080   10.2850    3.6680 C.ar      1 L1W        -0.0678
     28 CBG         1.4820   10.2650    4.4040 C.ar      1 L1W         0.0386
     29 CBH         1.6710    9.2550    5.3460 C.ar      1 L1W        -0.0325
     30 CBJ         2.1610   12.4770    4.4140 C.2       1 L1W         0.1995
     31 CBK         3.2860   13.4290    4.0040 C.3       1 L1W         0.0396
     32 CBL         3.3310   13.4710    2.4550 C.3       1 L1W        -0.0478
     33 CBP         0.2470   -0.8760   15.5110 C.2       1 L1W        -0.0430
     34 CBQ        -0.8210   -0.3510   14.7870 C.ar      1 L1W        -0.0566
     35 CBR        -0.8770   -0.4130   13.4000 C.ar      1 L1W        -0.0727
     36 CBS        -1.9780    0.1030   12.7230 C.ar      1 L1W        -0.0389
     37 CBT        -3.0370    0.6640   13.4260 C.ar      1 L1W         0.0825
     38 CBU        -2.9910    0.7110   14.8140 C.ar      1 L1W        -0.0389
     39 CBV        -1.8880    0.1970   15.4880 C.ar      1 L1W        -0.0727
     40 NAC         3.7200   -0.0950   16.2270 N.am      1 L1W        -0.2349
     41 NAF         1.8290    0.5750   14.3490 N.pl3     1 L1W        -0.2746
     42 NAT         3.0770    4.9460    9.0700 N.4       1 L1W         0.2469
     43 NAZ         0.6510    7.2970    6.3850 N.am      1 L1W        -0.2061
     44 NBB        -1.1920    7.3670    5.2240 N.am      1 L1W        -0.2278
     45 NBI         2.4120   11.1860    4.1500 N.am      1 L1W        -0.2453
     46 OBM         1.1390   12.9020    4.9490 O.2       1 L1W        -0.3867
     47 OBN        -0.9760    5.7200    6.7290 O.2       1 L1W        -0.3966
     48 OBO         2.1650   -1.4060   17.2160 O.2       1 L1W        -0.3764
     49 OBW        -4.1130    1.1660   12.7620 O.3       1 L1W        -0.3362
     50 H1          5.1488    2.0580   17.1932 H         1 L1W         0.0584
     51 H2          7.4744    2.8896   17.3017 H         1 L1W         0.0604
     52 H3          9.0120    2.5093   15.3992 H         1 L1W         0.0576
     53 H4          8.2058    1.3239   13.3829 H         1 L1W         0.0604
     54 H5          5.8808    0.4913   13.2740 H         1 L1W         0.0584
     55 H6          4.1549    3.5533   14.4148 H         1 L1W         0.0557
     56 H7          4.6531    5.0717   12.5495 H         1 L1W         0.0547
     57 H8          3.0519    2.2304    9.7816 H         1 L1W         0.0547
     58 H9          2.5665    0.6962   11.6593 H         1 L1W         0.0557
     59 H10         5.0101    4.2327    9.4225 H         1 L1W         0.0973
     60 H11         4.4956    5.6100   10.4545 H         1 L1W         0.0973
     61 H12         1.8306    5.6794   10.5955 H         1 L1W         0.0815
     62 H13         2.9151    6.8955    9.8393 H         1 L1W         0.0815
     63 H14         0.5816    7.2621    9.1549 H         1 L1W         0.0344
     64 H15         0.4834    5.5774    8.5395 H         1 L1W         0.0344
     65 H16         2.3543    7.7764    7.5403 H         1 L1W         0.0625
     66 H17         3.0709    6.1364    5.8662 H         1 L1W         0.0344
     67 H18         1.9851    4.9033    6.5924 H         1 L1W         0.0344
     68 H19         4.2503    6.3602    8.0450 H         1 L1W         0.0815
     69 H20         4.3330    4.6849    7.4022 H         1 L1W         0.0815
     70 H21        -1.5727    9.3113    3.3642 H         1 L1W         0.0431
     71 H22         0.1384   11.0445    2.9134 H         1 L1W         0.0352
     72 H23         2.5918    9.2122    5.9163 H         1 L1W         0.0345
     73 H24         4.2466   13.0640    4.3964 H         1 L1W         0.0504
     74 H25         3.0870   14.4358    4.3999 H         1 L1W         0.0504
     75 H26         4.1331   14.1499    2.1298 H         1 L1W         0.0254
     76 H27         2.3661   13.8324    2.0698 H         1 L1W         0.0254
     77 H28         3.5258   12.4606    2.0663 H         1 L1W         0.0254
     78 H29         0.1106   -1.7251   16.1791 H         1 L1W         0.0344
     79 H30        -0.0624   -0.8637   12.8448 H         1 L1W         0.0534
     80 H31        -2.0096    0.0670   11.6401 H         1 L1W         0.0532
     81 H32        -3.8128    1.1472   15.3703 H         1 L1W         0.0532
     82 H33        -1.8607    0.2243   16.5713 H         1 L1W         0.0534
     83 H34         4.4077   -0.3389   16.9108 H         1 L1W         0.2271
     84 H35         1.1145    0.8131   13.6464 H         1 L1W         0.2133
     85 H36         2.5192    4.1236    8.9013 H         1 L1W         0.2047
     86 H37        -2.1015    7.1441    4.8732 H         1 L1W         0.2205
     87 H38         3.2938   10.9152    3.7639 H         1 L1W         0.2207
     88 H39        -3.9863    1.0559   11.8270 H         1 L1W         0.2469
@<TRIPOS>BOND
     1    1    2 1  
     2    1   33 2  
     3   41    1 1  
     4   40    2 am 
     5    2   48 2  
     6    4    3 2  
     7    3    5 1  
     8    3   40 1  
     9    6    4 1  
    10    4   41 1  
    11    5    7 ar 
    12    5   11 ar 
    13   12    6 ar 
    14   16    6 ar 
    15    7    8 ar 
    16    8    9 ar 
    17   10    9 ar 
    18   11   10 ar 
    19   13   12 ar 
    20   14   13 ar 
    21   14   15 ar 
    22   17   14 1  
    23   15   16 ar 
    24   42   17 1  
    25   19   18 1  
    26   18   42 1  
    27   20   19 1  
    28   20   21 1  
    29   43   20 1  
    30   21   22 1  
    31   22   42 1  
    32   43   23 am 
    33   23   44 am 
    34   23   47 2  
    35   25   24 ar 
    36   26   24 ar 
    37   24   44 1  
    38   29   25 ar 
    39   25   43 1  
    40   27   26 ar 
    41   28   27 ar 
    42   28   29 ar 
    43   45   28 1  
    44   30   31 1  
    45   30   45 am 
    46   30   46 2  
    47   31   32 1  
    48   33   34 1  
    49   34   35 ar 
    50   34   39 ar 
    51   35   36 ar 
    52   36   37 ar 
    53   37   38 ar 
    54   37   49 1  
    55   38   39 ar 
    56    7   50 1  
    57    8   51 1  
    58    9   52 1  
    59   10   53 1  
    60   11   54 1  
    61   12   55 1  
    62   13   56 1  
    63   15   57 1  
    64   16   58 1  
    65   17   59 1  
    66   17   60 1  
    67   18   61 1  
    68   18   62 1  
    69   19   63 1  
    70   19   64 1  
    71   20   65 1  
    72   21   66 1  
    73   21   67 1  
    74   22   68 1  
    75   22   69 1  
    76   26   70 1  
    77   27   71 1  
    78   29   72 1  
    79   31   73 1  
    80   31   74 1  
    81   32   75 1  
    82   32   76 1  
    83   32   77 1  
    84   33   78 1  
    85   35   79 1  
    86   36   80 1  
    87   38   81 1  
    88   39   82 1  
    89   40   83 1  
    90   41   84 1  
    91   42   85 1  
    92   44   86 1  
    93   45   87 1  
    94   49   88 1  
@<TRIPOS>SUBSTRUCTURE
     1 L1W         1

