### 
### Created by X-TOOL on Mon Aug  2 16:16:50 2021
### 

@<TRIPOS>MOLECULE
6saf_ligand
  105   110     1     0     0
SMALL
GAST_HUCK


@<TRIPOS>ATOM
      1 CAN         9.8770   -2.9150   26.0090 C.3       1 L2Q        -0.0026
      2 CAR         9.9510   -3.0900   24.4920 C.3       1 L2Q        -0.0455
      3 CAQ        11.2140   -3.8310   24.0500 C.3       1 L2Q        -0.0524
      4 CAP        11.1360   -5.2410   24.5830 C.3       1 L2Q        -0.0507
      5 CAO        11.1040   -5.1440   26.1810 C.3       1 L2Q        -0.0339
      6 CAM         9.8370   -4.3110   26.6540 C.3       1 L2Q         0.0377
      7 CAL         9.6870   -4.2020   28.0600 C.2       1 L2Q         0.1086
      8 OAS        10.5310   -4.6890   28.8040 O.2       1 L2Q        -0.3913
      9 CAK         8.5820   -3.5620   28.6190 C.3       1 L2Q         0.0237
     10 CAJ         8.5450   -2.1080   28.0410 C.3       1 L2Q        -0.0169
     11 CAI         8.6260   -2.1120   26.4850 C.3       1 L2Q         0.0562
     12 CAG         8.6140   -0.6210   25.9640 C.2       1 L2Q         0.1845
     13 OAH         9.6970   -0.0740   25.6850 O.2       1 L2Q        -0.3964
     14 N           7.4020    0.0150   25.7950 N.am      1 L2Q        -0.2501
     15 CAE         6.0840   -0.5420   26.1670 C.3       1 L2Q         0.0368
     16 CAD         5.0990   -0.3080   25.1820 C.3       1 L2Q        -0.0321
     17 CAC         4.9250    1.1440   25.0400 C.3       1 L2Q        -0.0469
     18 CB          6.1700    1.7060   24.4280 C.3       1 L2Q        -0.0108
     19 CA          7.3940    1.4250   25.3260 C.3       1 L2Q         0.1450
     20 C           7.4800    2.3950   26.4120 C.2       1 L2Q         0.2620
     21 O           7.7840    3.5550   26.1350 O.2       1 L2Q        -0.3676
     22 OAV         7.2430    1.9450   27.7170 O.3       1 L2Q        -0.2586
     23 CAW         6.9960    2.9400   28.8020 C.3       1 L2Q         0.1207
     24 CAY         8.3560    3.1180   29.4490 C.3       1 L2Q        -0.0041
     25 CAZ         8.3170    4.3850   30.2800 C.3       1 L2Q        -0.0222
     26 CBA         8.8620    5.5300   29.5790 C.ar      1 L2Q        -0.0624
     27 CBF        10.2190    5.6030   29.2510 C.ar      1 L2Q        -0.0398
     28 CBB         8.0430    6.6140   29.2550 C.ar      1 L2Q        -0.0801
     29 CBC         8.5430    7.7330   28.5970 C.ar      1 L2Q        -0.0479
     30 CBD         9.9050    7.8000   28.2570 C.ar      1 L2Q         0.1122
     31 OBG        10.4560    8.8760   27.6130 O.3       1 L2Q        -0.3294
     32 CBH         9.6730   10.0980   27.5460 C.3       1 L2Q         0.0554
     33 CBE        10.7480    6.7050   28.5890 C.ar      1 L2Q         0.1132
     34 OBI        12.1060    6.6600   28.3210 O.3       1 L2Q        -0.3266
     35 CBJ        12.8270    7.5970   27.5040 C.3       1 L2Q         0.0568
     36 CAX         5.9220    2.4540   29.6100 C.ar      1 L2Q        -0.0186
     37 CBK         4.7170    3.1590   29.7140 C.ar      1 L2Q        -0.0295
     38 CBO         6.0150    1.2090   30.2330 C.ar      1 L2Q        -0.0686
     39 CBN         4.9710    0.6710   30.9740 C.ar      1 L2Q        -0.0771
     40 CBM         3.7880    1.3840   31.0860 C.ar      1 L2Q        -0.0401
     41 CBL         3.6540    2.6360   30.4550 C.ar      1 L2Q         0.0848
     42 OBP         2.4410    3.2480   30.6270 O.3       1 L2Q        -0.3145
     43 CBQ         2.0280    4.5860   30.2650 C.3       1 L2Q         0.1099
     44 CBR         1.4060    5.0880   31.5650 C.3       1 L2Q        -0.0033
     45 NBS         0.4430    6.1770   31.3130 N.4       1 L2Q         0.2404
     46 CBX        -1.0160    5.9590   31.2260 C.3       1 L2Q        -0.0077
     47 CBW        -1.7320    5.4060   32.4530 C.3       1 L2Q         0.0878
     48 OBV        -1.3320    6.1470   33.6770 O.3       1 L2Q        -0.3693
     49 CBU         0.0540    6.4330   33.8750 C.3       1 L2Q         0.0878
     50 CBT         0.5490    7.0710   32.5260 C.3       1 L2Q        -0.0077
     51 H1         10.7796   -2.3822   26.3428 H         1 L2Q         0.0356
     52 H2          9.9420   -2.0959   24.0211 H         1 L2Q         0.0271
     53 H3          9.0719   -3.6614   24.1593 H         1 L2Q         0.0271
     54 H4         12.1039   -3.3272   24.4552 H         1 L2Q         0.0266
     55 H5         11.2713   -3.8495   22.9517 H         1 L2Q         0.0266
     56 H6         12.0160   -5.8156   24.2582 H         1 L2Q         0.0267
     57 H7         10.2221   -5.7319   24.2172 H         1 L2Q         0.0267
     58 H8         12.0190   -4.6453   26.5333 H         1 L2Q         0.0293
     59 H9         11.0519   -6.1574   26.6057 H         1 L2Q         0.0293
     60 H10         8.9461   -4.8345   26.2769 H         1 L2Q         0.0534
     61 H11         8.6800   -3.5294   29.7141 H         1 L2Q         0.0496
     62 H12         7.6601   -4.0979   28.3491 H         1 L2Q         0.0496
     63 H13         9.3984   -1.5416   28.4422 H         1 L2Q         0.0317
     64 H14         7.6064   -1.6242   28.3491 H         1 L2Q         0.0317
     65 H15         7.7326   -2.6174   26.0895 H         1 L2Q         0.0544
     66 H16         5.7579   -0.0770   27.1090 H         1 L2Q         0.0524
     67 H17         6.1879   -1.6276   26.3107 H         1 L2Q         0.0524
     68 H18         4.1485   -0.7682   25.4897 H         1 L2Q         0.0285
     69 H19         5.4219   -0.7395   24.2231 H         1 L2Q         0.0285
     70 H20         4.7583    1.5976   26.0281 H         1 L2Q         0.0268
     71 H21         4.0629    1.3540   24.3899 H         1 L2Q         0.0268
     72 H22         6.0536    2.7930   24.3060 H         1 L2Q         0.0314
     73 H23         6.3300    1.2416   23.4438 H         1 L2Q         0.0314
     74 H24         8.2925    1.5598   24.7059 H         1 L2Q         0.0818
     75 H25         6.6838    3.9054   28.3772 H         1 L2Q         0.0814
     76 H26         9.1304    3.2046   28.6726 H         1 L2Q         0.0336
     77 H27         8.5783    2.2552   30.0941 H         1 L2Q         0.0336
     78 H28         8.9022    4.2226   31.1971 H         1 L2Q         0.0406
     79 H29         7.2714    4.5998   30.5454 H         1 L2Q         0.0406
     80 H30        10.8736    4.7816   29.5190 H         1 L2Q         0.0450
     81 H31         6.9930    6.5826   29.5226 H         1 L2Q         0.0436
     82 H32         7.8814    8.5542   28.3462 H         1 L2Q         0.0493
     83 H33        10.2409   10.8680   27.0033 H         1 L2Q         0.0570
     84 H34         9.4572   10.4516   28.5650 H         1 L2Q         0.0570
     85 H35         8.7281    9.8996   27.0189 H         1 L2Q         0.0570
     86 H36        13.8889    7.3122   27.4697 H         1 L2Q         0.0573
     87 H37        12.7316    8.6059   27.9318 H         1 L2Q         0.0573
     88 H38        12.4124    7.5900   26.4851 H         1 L2Q         0.0573
     89 H39         4.6080    4.1161   29.2168 H         1 L2Q         0.0479
     90 H40         6.9338    0.6422   30.1352 H         1 L2Q         0.0465
     91 H41         5.0799   -0.2929   31.4579 H         1 L2Q         0.0572
     92 H42         2.9638    0.9771   31.6606 H         1 L2Q         0.0486
     93 H43         1.2904    4.5698   29.4491 H         1 L2Q         0.0667
     94 H44         2.8887    5.2037   29.9690 H         1 L2Q         0.0667
     95 H45         2.2042    5.4609   32.2236 H         1 L2Q         0.0841
     96 H46         0.8836    4.2546   32.0575 H         1 L2Q         0.0841
     97 H47         0.7365    6.6501   30.4727 H         1 L2Q         0.2036
     98 H48        -1.1927    5.2551   30.3994 H         1 L2Q         0.0837
     99 H49        -1.4778    6.9284   30.9872 H         1 L2Q         0.0837
    100 H50        -1.4724    4.3439   32.5737 H         1 L2Q         0.0613
    101 H51        -2.8184    5.5041   32.3112 H         1 L2Q         0.0613
    102 H52         0.6103    5.5087   34.0898 H         1 L2Q         0.0613
    103 H53         0.1853    7.1415   34.7061 H         1 L2Q         0.0613
    104 H54        -0.0506    7.9736   32.3366 H         1 L2Q         0.0837
    105 H55         1.6053    7.3518   32.6502 H         1 L2Q         0.0837
@<TRIPOS>BOND
     1    1    2 1  
     2    1    6 1  
     3    1   11 1  
     4    2    3 1  
     5    3    4 1  
     6    4    5 1  
     7    5    6 1  
     8    6    7 1  
     9    7    8 2  
    10    7    9 1  
    11    9   10 1  
    12   10   11 1  
    13   11   12 1  
    14   12   13 2  
    15   12   14 am 
    16   14   15 1  
    17   14   19 1  
    18   15   16 1  
    19   16   17 1  
    20   17   18 1  
    21   18   19 1  
    22   19   20 1  
    23   20   21 2  
    24   20   22 1  
    25   22   23 1  
    26   23   24 1  
    27   23   36 1  
    28   24   25 1  
    29   25   26 1  
    30   26   27 ar 
    31   26   28 ar 
    32   27   33 ar 
    33   28   29 ar 
    34   29   30 ar 
    35   30   31 1  
    36   30   33 ar 
    37   31   32 1  
    38   33   34 1  
    39   34   35 1  
    40   36   37 ar 
    41   36   38 ar 
    42   37   41 ar 
    43   38   39 ar 
    44   39   40 ar 
    45   40   41 ar 
    46   41   42 1  
    47   42   43 1  
    48   43   44 1  
    49   44   45 1  
    50   45   46 1  
    51   45   50 1  
    52   46   47 1  
    53   47   48 1  
    54   48   49 1  
    55   49   50 1  
    56    1   51 1  
    57    2   52 1  
    58    2   53 1  
    59    3   54 1  
    60    3   55 1  
    61    4   56 1  
    62    4   57 1  
    63    5   58 1  
    64    5   59 1  
    65    6   60 1  
    66    9   61 1  
    67    9   62 1  
    68   10   63 1  
    69   10   64 1  
    70   11   65 1  
    71   15   66 1  
    72   15   67 1  
    73   16   68 1  
    74   16   69 1  
    75   17   70 1  
    76   17   71 1  
    77   18   72 1  
    78   18   73 1  
    79   19   74 1  
    80   23   75 1  
    81   24   76 1  
    82   24   77 1  
    83   25   78 1  
    84   25   79 1  
    85   27   80 1  
    86   28   81 1  
    87   29   82 1  
    88   32   83 1  
    89   32   84 1  
    90   32   85 1  
    91   35   86 1  
    92   35   87 1  
    93   35   88 1  
    94   37   89 1  
    95   38   90 1  
    96   39   91 1  
    97   40   92 1  
    98   43   93 1  
    99   43   94 1  
   100   44   95 1  
   101   44   96 1  
   102   45   97 1  
   103   46   98 1  
   104   46   99 1  
   105   47  100 1  
   106   47  101 1  
   107   49  102 1  
   108   49  103 1  
   109   50  104 1  
   110   50  105 1  
@<TRIPOS>SUBSTRUCTURE
     1 L2Q         1

