### 
### Created by X-TOOL on Mon Aug  2 16:16:50 2021
### 

@<TRIPOS>MOLECULE
6sal_ligand
   46    49     1     0     0
SMALL
GAST_HUCK


@<TRIPOS>ATOM
      1 N1         -0.3120  -43.3110  -15.3410 N.pl3     1 L3E        -0.3142
      2 C2          2.2850  -42.7640  -18.5410 C.ar      1 L3E        -0.0033
      3 N3          1.1330  -47.3500  -11.4420 N.pl3     1 L3E        -0.2923
      4 C4          0.9930  -44.2820  -17.1800 C.ar      1 L3E        -0.0404
      5 C5          0.5450  -43.1890  -16.4150 C.ar      1 L3E         0.0423
      6 C6         -1.1450  -44.4530  -15.1090 C.3       1 L3E         0.0490
      7 C9         -4.1430  -43.1300  -14.2410 C.ar      1 L3E         0.0306
      8 C11        -4.7600  -40.8500  -14.8080 C.ar      1 L3E        -0.0224
      9 C1          3.2290  -42.4550  -19.6720 C.2       1 L3E         0.0542
     10 C10        -3.9160  -41.7580  -14.1910 C.ar      1 L3E         0.0743
     11 C12        -5.8710  -41.3170  -15.4760 C.ar      1 L3E        -0.0348
     12 C13        -6.1360  -42.6730  -15.5210 C.ar      1 L3E        -0.0351
     13 C14        -5.2880  -43.5960  -14.9150 C.ar      1 L3E         0.0476
     14 C15        -5.6210  -45.0440  -14.9930 C.3       1 L3E         0.3684
     15 C16        -1.5400  -45.2870  -12.7700 C.2       1 L3E         0.1451
     16 C17        -0.3270  -46.0180  -12.4510 C.2       1 L3E        -0.0026
     17 C18         0.9420  -45.8840  -13.0850 C.2       1 L3E        -0.0738
     18 C19         1.8070  -46.7310  -12.4480 C.2       1 L3E         0.0148
     19 C20        -0.1610  -46.9190  -11.4260 C.2       1 L3E         0.0273
     20 C21         0.9710  -41.9080  -16.7270 C.ar      1 L3E        -0.0404
     21 C22         1.8310  -41.7030  -17.7790 C.ar      1 L3E        -0.0593
     22 C3          1.8640  -44.0600  -18.2400 C.ar      1 L3E        -0.0593
     23 C7         -1.9410  -44.5180  -13.8400 C.2       1 L3E         0.0234
     24 C8         -3.2280  -44.0500  -13.5400 C.2       1 L3E         0.0833
     25 F1         -6.5530  -45.2860  -15.8960 F         1 L3E        -0.2290
     26 F2         -6.0760  -45.5250  -13.8370 F         1 L3E        -0.2290
     27 F3         -4.5800  -45.8050  -15.3430 F         1 L3E        -0.2290
     28 N2         -3.5760  -44.4640  -12.3400 N.2       1 L3E        -0.1293
     29 O1          3.6380  -41.2760  -19.7510 O.co2     1 L3E        -0.5642
     30 O2          3.5310  -43.3560  -20.4640 O.co2     1 L3E        -0.5642
     31 O3         -2.5180  -45.2560  -11.8400 O.3       1 L3E        -0.1690
     32 CL1        -2.5280  -41.1340  -13.3750 Cl        1 L3E        -0.0632
     33 H1         -0.3555  -42.5346  -14.6656 H         1 L3E         0.1786
     34 H2          1.5377  -48.0387  -10.7918 H         1 L3E         0.2357
     35 H3          0.6620  -45.2871  -16.9448 H         1 L3E         0.0524
     36 H4         -0.4928  -45.3386  -15.1277 H         1 L3E         0.0618
     37 H5         -1.8603  -44.5067  -15.9429 H         1 L3E         0.0618
     38 H6         -4.5498  -39.7874  -14.7661 H         1 L3E         0.0844
     39 H7         -6.5391  -40.6191  -15.9676 H         1 L3E         0.0684
     40 H8         -7.0214  -43.0245  -16.0383 H         1 L3E         0.0833
     41 H9          1.1793  -45.2287  -13.9217 H         1 L3E         0.0279
     42 H10         2.8548  -46.8833  -12.7026 H         1 L3E         0.0813
     43 H11        -0.9301  -47.2343  -10.7225 H         1 L3E         0.0832
     44 H12         0.6249  -41.0652  -16.1396 H         1 L3E         0.0524
     45 H13         2.1578  -40.6966  -18.0146 H         1 L3E         0.0617
     46 H14         2.2170  -44.8952  -18.8341 H         1 L3E         0.0617
@<TRIPOS>BOND
     1    1    5 1  
     2    6    1 1  
     3    2    9 1  
     4   21    2 ar 
     5   22    2 ar 
     6    3   18 1  
     7   19    3 1  
     8    5    4 ar 
     9    4   22 ar 
    10    5   20 ar 
    11   23    6 1  
    12    7   10 ar 
    13    7   13 ar 
    14   24    7 1  
    15   10    8 ar 
    16    8   11 ar 
    17    9   29 ar 
    18    9   30 ar 
    19   10   32 1  
    20   12   11 ar 
    21   13   12 ar 
    22   13   14 1  
    23   14   25 1  
    24   14   26 1  
    25   14   27 1  
    26   15   16 1  
    27   23   15 2  
    28   15   31 1  
    29   16   17 1  
    30   16   19 2  
    31   17   18 2  
    32   20   21 ar 
    33   23   24 1  
    34   24   28 2  
    35   28   31 1  
    36    1   33 1  
    37    3   34 1  
    38    4   35 1  
    39    6   36 1  
    40    6   37 1  
    41    8   38 1  
    42   11   39 1  
    43   12   40 1  
    44   17   41 1  
    45   18   42 1  
    46   19   43 1  
    47   20   44 1  
    48   21   45 1  
    49   22   46 1  
@<TRIPOS>SUBSTRUCTURE
     1 L3E         1

