### 
### Created by X-TOOL on Mon Aug  2 16:16:50 2021
### 

@<TRIPOS>MOLECULE
6sbt_ligand
   42    45     1     0     0
SMALL
GAST_HUCK


@<TRIPOS>ATOM
      1 N1          4.7850   28.0270   37.9220 N.am      1 L5H        -0.2168
      2 N3          6.2260   31.5960   36.4270 N.am      1 L5H        -0.1436
      3 C4          7.9170   29.2150   36.3980 C.ar      1 L5H         0.0318
      4 C5          8.6920   28.0460   36.4290 C.ar      1 L5H         0.1118
      5 C6          8.1610   26.8490   36.9470 C.ar      1 L5H         0.0344
      6 C7          3.9380   29.0750   37.9610 C.2       1 L5H         0.3226
      7 C8          4.4580   30.3950   37.4020 C.2       1 L5H         0.3588
      8 C10         6.7770   33.4750   35.1210 C.ar      1 L5H         0.0523
      9 C13         7.9950   35.9910   35.0760 C.ar      1 L5H        -0.0575
     10 C15         6.6690   34.3460   36.2200 C.ar      1 L5H        -0.0419
     11 C17        11.2030   28.3280   36.5130 C.2       1 L5H         0.1189
     12 C1          6.8510   26.8600   37.4480 C.ar      1 L5H        -0.0298
     13 C11         7.5130   33.8840   33.9980 C.ar      1 L5H        -0.0419
     14 C12         8.1160   35.1410   33.9790 C.ar      1 L5H        -0.0562
     15 C14         7.2730   35.5990   36.1990 C.ar      1 L5H        -0.0562
     16 C16         8.9850   25.5520   36.9950 C.3       1 L5H         0.3311
     17 C18        11.7060   28.0600   34.4980 C.2       1 L5H        -0.0169
     18 C19        10.3310   27.9250   34.5720 C.2       1 L5H         0.0570
     19 C2          6.0890   28.0280   37.4220 C.ar      1 L5H         0.1278
     20 C3          6.6040   29.2230   36.8990 C.ar      1 L5H         0.1721
     21 C9          6.1160   32.1150   35.1850 C.2       1 L5H         0.2328
     22 F1          9.3700   25.1540   35.7870 F         1 L5H        -0.2618
     23 F2         10.0750   25.7700   37.7290 F         1 L5H        -0.2618
     24 F3          8.3200   24.5450   37.5610 F         1 L5H        -0.2618
     25 N2          5.7380   30.3620   36.9010 N.am      1 L5H        -0.0691
     26 N4          9.9950   28.1030   35.8940 N.pl3     1 L5H        -0.1980
     27 N5         12.2280   28.3080   35.6860 N.2       1 L5H        -0.3230
     28 O1          5.5650   31.5900   34.2070 O.2       1 L5H        -0.3820
     29 O2          2.7960   28.9980   38.4200 O.2       1 L5H        -0.3485
     30 O3          3.7050   31.3800   37.4220 O.2       1 L5H        -0.3362
     31 H1          4.4451   27.1608   38.2883 H         1 L5H         0.2280
     32 H2          6.7152   32.1580   37.0940 H         1 L5H         0.2262
     33 H3          8.3364   30.1240   35.9822 H         1 L5H         0.0556
     34 H4          8.4675   36.9664   35.0546 H         1 L5H         0.0653
     35 H5          6.1080   34.0370   37.0945 H         1 L5H         0.0669
     36 H6         11.3021   28.5054   37.5829 H         1 L5H         0.1256
     37 H7          6.4264   25.9515   37.8596 H         1 L5H         0.0552
     38 H8          7.6126   33.2223   33.1452 H         1 L5H         0.0669
     39 H9          8.6800   35.4574   33.1090 H         1 L5H         0.0629
     40 H10         7.1820   36.2642   37.0501 H         1 L5H         0.0629
     41 H11        12.2836   27.9730   33.5789 H         1 L5H         0.0472
     42 H12         9.6501   27.7188   33.7475 H         1 L5H         0.0886
@<TRIPOS>BOND
     1    1    6 am 
     2   19    1 1  
     3    2   21 am 
     4   25    2 1  
     5    4    3 ar 
     6    3   20 ar 
     7    4    5 ar 
     8   26    4 1  
     9    5   12 ar 
    10    5   16 1  
    11    6    7 1  
    12    6   29 2  
    13    7   25 am 
    14    7   30 2  
    15    8   10 ar 
    16    8   13 ar 
    17   21    8 1  
    18   14    9 ar 
    19   15    9 ar 
    20   10   15 ar 
    21   11   26 1  
    22   27   11 2  
    23   12   19 ar 
    24   13   14 ar 
    25   16   22 1  
    26   16   23 1  
    27   16   24 1  
    28   17   18 2  
    29   17   27 1  
    30   18   26 1  
    31   19   20 ar 
    32   20   25 1  
    33   21   28 2  
    34    1   31 1  
    35    2   32 1  
    36    3   33 1  
    37    9   34 1  
    38   10   35 1  
    39   11   36 1  
    40   12   37 1  
    41   13   38 1  
    42   14   39 1  
    43   15   40 1  
    44   17   41 1  
    45   18   42 1  
@<TRIPOS>SUBSTRUCTURE
     1 L5H         1

