### 
### Created by X-TOOL on Mon Aug  2 16:16:51 2021
### 

@<TRIPOS>MOLECULE
6sd9_ligand
   79    84     1     0     0
SMALL
GAST_HUCK


@<TRIPOS>ATOM
      1 C1         -7.2670   21.7140  -31.1090 C.ar      1 MOL         0.1282
      2 C2         -8.3450   22.6380  -31.0330 C.ar      1 MOL         0.1288
      3 C3         -9.6320   22.1900  -30.9560 C.ar      1 MOL        -0.0216
      4 C4         -9.9090   20.8060  -30.9510 C.ar      1 MOL         0.0167
      5 C5         -8.8360   19.8840  -31.0260 C.ar      1 MOL         0.0267
      6 C6         -7.5100   20.3700  -31.1050 C.ar      1 MOL        -0.0224
      7 N7        -11.2220   20.4110  -30.8670 N.ar      1 MOL        -0.3290
      8 C8        -11.4630   19.1070  -30.8600 C.ar      1 MOL        -0.0141
      9 C9        -10.4950   18.1130  -30.9320 C.ar      1 MOL        -0.0097
     10 C10        -9.1730   18.5060  -31.0120 C.ar      1 MOL         0.1341
     11 O11        -6.0260   22.2890  -31.1820 O.3       1 MOL        -0.3209
     12 C12        -4.8850   21.4280  -31.2080 C.3       1 MOL         0.0581
     13 O13        -7.9680   23.9550  -31.0470 O.3       1 MOL        -0.3150
     14 O14        -8.1060   17.6140  -31.0840 O.3       1 MOL        -0.2537
     15 C15        -8.3020   16.3190  -30.6320 C.ar      1 MOL         0.1411
     16 C16        -8.2750   16.0080  -29.2800 C.ar      1 MOL        -0.0406
     17 C17        -8.4790   14.6990  -28.8710 C.ar      1 MOL        -0.0509
     18 C18        -8.7150   13.6930  -29.8050 C.ar      1 MOL         0.0545
     19 C19        -8.7440   14.0040  -31.1590 C.ar      1 MOL        -0.0134
     20 C20        -8.5390   15.3040  -31.5370 C.ar      1 MOL         0.1541
     21 F21        -8.5710   15.6150  -32.8500 F         1 MOL        -0.1919
     22 N22        -8.9100   12.3960  -29.2790 N.am      1 MOL        -0.2522
     23 C23        -8.9780   24.9450  -31.3040 C.3       1 MOL         0.0752
     24 C24        -8.3020   26.1960  -31.7980 C.3       1 MOL         0.0153
     25 C25        -7.5920   26.9410  -30.6870 C.3       1 MOL        -0.0292
     26 N26        -6.8880   28.1460  -31.1340 N.4       1 MOL         0.2385
     27 C27        -5.4460   27.8780  -31.2770 C.3       1 MOL        -0.0078
     28 C28        -4.7500   29.0710  -31.8940 C.3       1 MOL         0.0878
     29 O29        -5.2660   30.3100  -31.3860 O.3       1 MOL        -0.3693
     30 C30        -5.8660   30.1190  -30.0970 C.3       1 MOL         0.0878
     31 C31        -7.0990   29.2490  -30.1800 C.3       1 MOL        -0.0078
     32 C32        -9.1510   11.2190  -29.9000 C.2       1 MOL         0.1857
     33 C33        -9.3230    9.9880  -28.9820 C.3       1 MOL         0.1770
     34 C34        -9.6660   10.2920  -27.4890 C.2       1 MOL         0.1872
     35 N35       -10.0270    9.2480  -26.7040 N.am      1 MOL        -0.2483
     36 O36        -9.2270   11.1070  -31.1130 O.2       1 MOL        -0.3768
     37 O37        -9.6120   11.4260  -27.0330 O.2       1 MOL        -0.3759
     38 C38       -10.2140    9.3440  -25.3080 C.ar      1 MOL         0.0617
     39 C39        -9.3970    8.6450  -24.4270 C.ar      1 MOL        -0.0423
     40 C40        -9.5870    8.7560  -23.0590 C.ar      1 MOL        -0.0414
     41 C41       -10.5940    9.5700  -22.6060 C.ar      1 MOL         0.1160
     42 C42       -11.4170   10.2750  -23.4420 C.ar      1 MOL        -0.0414
     43 C43       -11.2230   10.1600  -24.8070 C.ar      1 MOL        -0.0423
     44 F44       -10.7860    9.6810  -21.2720 F         1 MOL        -0.1961
     45 C45        -9.7060    8.6710  -29.6610 C.2       1 MOL        -0.0248
     46 C46        -8.3070    8.8660  -29.2160 C.2       1 MOL        -0.0248
     47 H1        -10.4472   22.9022  -30.8983 H         1 MOL         0.0483
     48 H2         -6.6825   19.6722  -31.1627 H         1 MOL         0.0520
     49 H3        -12.4979   18.7914  -30.7927 H         1 MOL         0.0769
     50 H4        -10.7680   17.0639  -30.9256 H         1 MOL         0.0544
     51 H5         -3.9693   22.0346  -31.2673 H         1 MOL         0.0575
     52 H6         -4.9443   20.7670  -32.0852 H         1 MOL         0.0575
     53 H7         -4.8634   20.8201  -30.2915 H         1 MOL         0.0575
     54 H8         -8.0951   16.7855  -28.5464 H         1 MOL         0.0513
     55 H9         -8.4546   14.4563  -27.8148 H         1 MOL         0.0451
     56 H10        -8.9250   13.2339  -31.9001 H         1 MOL         0.0468
     57 H11        -8.8618   12.3390  -28.2818 H         1 MOL         0.2220
     58 H12        -9.5298   25.1620  -30.3775 H         1 MOL         0.0616
     59 H13        -9.6764   24.5736  -32.0684 H         1 MOL         0.0616
     60 H14        -9.0615   26.8582  -32.2391 H         1 MOL         0.0343
     61 H15        -7.5650   25.9202  -32.5666 H         1 MOL         0.0343
     62 H16        -6.8584   26.2616  -30.2284 H         1 MOL         0.0815
     63 H17        -8.3391   27.2355  -29.9352 H         1 MOL         0.0815
     64 H18        -7.2567   28.4194  -32.0314 H         1 MOL         0.2035
     65 H19        -5.3023   26.9996  -31.9233 H         1 MOL         0.0837
     66 H20        -5.0137   27.6783  -30.2854 H         1 MOL         0.0837
     67 H21        -4.8965   29.0444  -32.9839 H         1 MOL         0.0613
     68 H22        -3.6753   29.0130  -31.6669 H         1 MOL         0.0613
     69 H23        -6.1481   31.0995  -29.6859 H         1 MOL         0.0613
     70 H24        -5.1346   29.6386  -29.4305 H         1 MOL         0.0613
     71 H25        -7.3151   28.8314  -29.1856 H         1 MOL         0.0837
     72 H26        -7.9509   29.8592  -30.5145 H         1 MOL         0.0837
     73 H27       -10.1691    8.3586  -27.1385 H         1 MOL         0.2237
     74 H28        -8.6074    8.0100  -24.8121 H         1 MOL         0.0496
     75 H29        -8.9560    8.2134  -22.3644 H         1 MOL         0.0567
     76 H30       -12.2018   10.9082  -23.0442 H         1 MOL         0.0567
     77 H31       -11.8610   10.7090  -25.4901 H         1 MOL         0.0496
     78 H32       -10.4616    8.0436  -30.1315 H         1 MOL         0.1226
     79 H33        -7.2906    8.4862  -29.1226 H         1 MOL         0.1226
@<TRIPOS>BOND
     1    1    2 ar 
     2    1    6 ar 
     3    1   11 1  
     4    2    3 ar 
     5    2   13 1  
     6    3    4 ar 
     7    4    5 ar 
     8    4    7 ar 
     9    5    6 ar 
    10    5   10 ar 
    11    7    8 ar 
    12    8    9 ar 
    13    9   10 ar 
    14   10   14 1  
    15   11   12 1  
    16   13   23 1  
    17   14   15 1  
    18   15   16 ar 
    19   15   20 ar 
    20   16   17 ar 
    21   17   18 ar 
    22   18   19 ar 
    23   18   22 1  
    24   19   20 ar 
    25   20   21 1  
    26   22   32 am 
    27   23   24 1  
    28   24   25 1  
    29   25   26 1  
    30   26   27 1  
    31   26   31 1  
    32   27   28 1  
    33   28   29 1  
    34   29   30 1  
    35   30   31 1  
    36   32   33 1  
    37   32   36 2  
    38   33   34 1  
    39   33   45 1  
    40   33   46 1  
    41   34   35 am 
    42   34   37 2  
    43   35   38 1  
    44   38   39 ar 
    45   38   43 ar 
    46   39   40 ar 
    47   40   41 ar 
    48   41   42 ar 
    49   41   44 1  
    50   42   43 ar 
    51   45   46 2  
    52    3   47 1  
    53    6   48 1  
    54    8   49 1  
    55    9   50 1  
    56   12   51 1  
    57   12   52 1  
    58   12   53 1  
    59   16   54 1  
    60   17   55 1  
    61   19   56 1  
    62   22   57 1  
    63   23   58 1  
    64   23   59 1  
    65   24   60 1  
    66   24   61 1  
    67   25   62 1  
    68   25   63 1  
    69   26   64 1  
    70   27   65 1  
    71   27   66 1  
    72   28   67 1  
    73   28   68 1  
    74   30   69 1  
    75   30   70 1  
    76   31   71 1  
    77   31   72 1  
    78   35   73 1  
    79   39   74 1  
    80   40   75 1  
    81   42   76 1  
    82   43   77 1  
    83   45   78 1  
    84   46   79 1  
@<TRIPOS>SUBSTRUCTURE
     1 MOL         1

