### 
### Created by X-TOOL on Mon Aug  2 16:16:51 2021
### 

@<TRIPOS>MOLECULE
6sdc_ligand
   79    84     1     0     0
SMALL
GAST_HUCK


@<TRIPOS>ATOM
      1 C1          8.0380  -22.7670  -31.1790 C.ar      1 MOL         0.1282
      2 C2          9.0600  -23.7430  -31.0530 C.ar      1 MOL         0.1288
      3 C3         10.3640  -23.3670  -30.9050 C.ar      1 MOL        -0.0216
      4 C4         10.7180  -22.0000  -30.8850 C.ar      1 MOL         0.0167
      5 C5          9.7050  -21.0220  -31.0140 C.ar      1 MOL         0.0267
      6 C6          8.3520  -21.4360  -31.1620 C.ar      1 MOL        -0.0224
      7 N7         12.0430  -21.6760  -30.7330 N.ar      1 MOL        -0.3290
      8 C8         12.3560  -20.3870  -30.7070 C.ar      1 MOL        -0.0141
      9 C9         11.4490  -19.3440  -30.8270 C.ar      1 MOL        -0.0097
     10 C10        10.1150  -19.6670  -30.9810 C.ar      1 MOL         0.1341
     11 O11         6.7760  -23.2800  -31.3240 O.3       1 MOL        -0.3209
     12 C12         5.6810  -22.3660  -31.4180 C.3       1 MOL         0.0581
     13 O13         8.6080  -25.0360  -31.0850 O.3       1 MOL        -0.3150
     14 O14         9.0800  -18.7480  -31.1140 O.3       1 MOL        -0.2537
     15 C15         9.2260  -17.4840  -30.5730 C.ar      1 MOL         0.1411
     16 C16         9.2360  -17.2480  -29.2010 C.ar      1 MOL        -0.0406
     17 C17         9.3900  -15.9560  -28.7230 C.ar      1 MOL        -0.0509
     18 C18         9.5330  -14.8900  -29.6090 C.ar      1 MOL         0.0545
     19 C19         9.5190  -15.1240  -30.9850 C.ar      1 MOL        -0.0134
     20 C20         9.3690  -16.4100  -31.4300 C.ar      1 MOL         0.1541
     21 F21         9.3560  -16.6510  -32.7610 F         1 MOL        -0.1919
     22 N22         9.6850  -13.5980  -29.0620 N.am      1 MOL        -0.2522
     23 C23         9.5760  -26.0880  -31.2010 C.3       1 MOL         0.0752
     24 C24         8.8370  -27.3750  -31.4830 C.3       1 MOL         0.0153
     25 C25         8.2020  -27.9550  -30.2300 C.3       1 MOL        -0.0292
     26 N26         7.5740  -29.2710  -30.4100 N.4       1 MOL         0.2385
     27 C27         6.1550  -29.2130  -30.0100 C.3       1 MOL        -0.0078
     28 C28         5.8100  -30.3690  -29.0940 C.3       1 MOL         0.0878
     29 O29         6.2230  -31.6240  -29.6450 O.3       1 MOL        -0.3693
     30 C30         7.6480  -31.6560  -29.8280 C.3       1 MOL         0.0878
     31 C31         8.2790  -30.2940  -29.6180 C.3       1 MOL        -0.0078
     32 C32         9.8330  -12.4160  -29.6940 C.2       1 MOL         0.1857
     33 C33        10.1260  -11.2010  -28.8020 C.3       1 MOL         0.1770
     34 C34        10.5390  -11.4970  -27.3320 C.2       1 MOL         0.1872
     35 N35        10.7740  -10.4320  -26.5420 N.am      1 MOL        -0.2483
     36 O36         9.7360  -12.2910  -30.9080 O.2       1 MOL        -0.3768
     37 O37        10.6470  -12.6440  -26.9020 O.2       1 MOL        -0.3759
     38 C38        10.9740  -10.5270  -25.1450 C.ar      1 MOL         0.0617
     39 C39        10.1510   -9.8360  -24.2620 C.ar      1 MOL        -0.0423
     40 C40        10.3480   -9.9430  -22.8970 C.ar      1 MOL        -0.0414
     41 C41        11.3640  -10.7440  -22.4450 C.ar      1 MOL         0.1160
     42 C42        12.1930  -11.4450  -23.2800 C.ar      1 MOL        -0.0414
     43 C43        11.9930  -11.3350  -24.6460 C.ar      1 MOL        -0.0423
     44 F44        11.5530  -10.8520  -21.1120 F         1 MOL        -0.1961
     45 C45        10.6210   -9.9250  -29.4910 C.2       1 MOL        -0.0248
     46 C46         9.2040  -10.0010  -29.0480 C.2       1 MOL        -0.0248
     47 H1         11.1336  -24.1235  -30.8021 H         1 MOL         0.0483
     48 H2          7.5677  -20.6944  -31.2616 H         1 MOL         0.0520
     49 H3         13.4014  -20.1287  -30.5823 H         1 MOL         0.0769
     50 H4         11.7762  -18.3109  -30.8008 H         1 MOL         0.0544
     51 H5          4.7424  -22.9286  -31.5301 H         1 MOL         0.0575
     52 H6          5.8230  -21.7122  -32.2911 H         1 MOL         0.0575
     53 H7          5.6348  -21.7540  -30.5052 H         1 MOL         0.0575
     54 H8          9.1235  -18.0735  -28.5075 H         1 MOL         0.0513
     55 H9          9.3992  -15.7739  -27.6544 H         1 MOL         0.0451
     56 H10         9.6247  -14.3045  -31.6867 H         1 MOL         0.0468
     57 H11         9.6826  -13.5525  -28.0630 H         1 MOL         0.2220
     58 H12        10.1410  -26.1804  -30.2617 H         1 MOL         0.0616
     59 H13        10.2695  -25.8676  -32.0259 H         1 MOL         0.0616
     60 H14         9.5462  -28.1088  -31.8936 H         1 MOL         0.0343
     61 H15         8.0466  -27.1758  -32.2217 H         1 MOL         0.0343
     62 H16         7.4307  -27.2528  -29.8808 H         1 MOL         0.0815
     63 H17         8.9845  -28.0514  -29.4630 H         1 MOL         0.0815
     64 H18         7.6269  -29.5236  -31.3844 H         1 MOL         0.2035
     65 H19         5.5238  -29.2640  -30.9094 H         1 MOL         0.0837
     66 H20         5.9666  -28.2660  -29.4831 H         1 MOL         0.0837
     67 H21         4.7210  -30.3887  -28.9398 H         1 MOL         0.0613
     68 H22         6.3145  -30.2208  -28.1278 H         1 MOL         0.0613
     69 H23         7.8670  -31.9946  -30.8514 H         1 MOL         0.0613
     70 H24         8.0827  -32.3636  -29.1067 H         1 MOL         0.0613
     71 H25         8.2221  -30.0292  -28.5519 H         1 MOL         0.0837
     72 H26         9.3329  -30.3313  -29.9308 H         1 MOL         0.0837
     73 H27        10.8089   -9.5266  -26.9652 H         1 MOL         0.2237
     74 H28         9.3522   -9.2112  -24.6449 H         1 MOL         0.0496
     75 H29         9.7136   -9.4059  -22.2012 H         1 MOL         0.0567
     76 H30        12.9848  -12.0694  -22.8822 H         1 MOL         0.0567
     77 H31        12.6327  -11.8805  -25.3303 H         1 MOL         0.0496
     78 H32        11.4276   -9.3664  -29.9635 H         1 MOL         0.1226
     79 H33         8.2218   -9.5388  -28.9611 H         1 MOL         0.1226
@<TRIPOS>BOND
     1    1    2 ar 
     2    1    6 ar 
     3    1   11 1  
     4    2    3 ar 
     5    2   13 1  
     6    3    4 ar 
     7    4    5 ar 
     8    4    7 ar 
     9    5    6 ar 
    10    5   10 ar 
    11    7    8 ar 
    12    8    9 ar 
    13    9   10 ar 
    14   10   14 1  
    15   11   12 1  
    16   13   23 1  
    17   14   15 1  
    18   15   16 ar 
    19   15   20 ar 
    20   16   17 ar 
    21   17   18 ar 
    22   18   19 ar 
    23   18   22 1  
    24   19   20 ar 
    25   20   21 1  
    26   22   32 am 
    27   23   24 1  
    28   24   25 1  
    29   25   26 1  
    30   26   27 1  
    31   26   31 1  
    32   27   28 1  
    33   28   29 1  
    34   29   30 1  
    35   30   31 1  
    36   32   33 1  
    37   32   36 2  
    38   33   34 1  
    39   33   45 1  
    40   33   46 1  
    41   34   35 am 
    42   34   37 2  
    43   35   38 1  
    44   38   39 ar 
    45   38   43 ar 
    46   39   40 ar 
    47   40   41 ar 
    48   41   42 ar 
    49   41   44 1  
    50   42   43 ar 
    51   45   46 2  
    52    3   47 1  
    53    6   48 1  
    54    8   49 1  
    55    9   50 1  
    56   12   51 1  
    57   12   52 1  
    58   12   53 1  
    59   16   54 1  
    60   17   55 1  
    61   19   56 1  
    62   22   57 1  
    63   23   58 1  
    64   23   59 1  
    65   24   60 1  
    66   24   61 1  
    67   25   62 1  
    68   25   63 1  
    69   26   64 1  
    70   27   65 1  
    71   27   66 1  
    72   28   67 1  
    73   28   68 1  
    74   30   69 1  
    75   30   70 1  
    76   31   71 1  
    77   31   72 1  
    78   35   73 1  
    79   39   74 1  
    80   40   75 1  
    81   42   76 1  
    82   43   77 1  
    83   45   78 1  
    84   46   79 1  
@<TRIPOS>SUBSTRUCTURE
     1 MOL         1

