### 
### Created by X-TOOL on Mon Aug  2 16:16:51 2021
### 

@<TRIPOS>MOLECULE
6sdd_ligand
   55    58     1     0     0
SMALL
GAST_HUCK


@<TRIPOS>ATOM
      1 C1         -9.5880   -4.7460    7.1810 C.ar      1 MOL        -0.0288
      2 C2        -11.2320   -6.5110    7.0760 C.ar      1 MOL        -0.0288
      3 C3        -14.0200   -6.0400   13.1730 C.ar      1 MOL        -0.0519
      4 C4        -14.4580   -6.5540   14.3830 C.ar      1 MOL        -0.0418
      5 C5         -8.5980   -5.6440    6.8120 C.ar      1 MOL        -0.0351
      6 C6        -10.2480   -7.4120    6.7080 C.ar      1 MOL        -0.0351
      7 C7        -17.1580   -8.3910   15.1180 C.ar      1 MOL        -0.0151
      8 C8        -15.8280   -4.4460   13.1800 C.ar      1 MOL        -0.0145
      9 C9        -17.7320   -9.6420   15.2660 C.ar      1 MOL        -0.0138
     10 C10       -10.9090   -5.1760    7.3180 C.ar      1 MOL         0.1079
     11 C11       -14.6980   -4.9870   12.5650 C.ar      1 MOL         0.0529
     12 C12       -15.5840   -6.0200   15.0010 C.ar      1 MOL         0.1378
     13 C13       -16.6660   -7.7670   16.2590 C.ar      1 MOL         0.1339
     14 C14        -8.9560   -6.9540    6.5860 C.ar      1 MOL         0.1218
     15 C15       -16.2420   -4.9770   14.3790 C.ar      1 MOL         0.1530
     16 C16       -16.7660   -8.4100   17.4970 C.ar      1 MOL         0.1133
     17 C17       -17.3650   -9.6770   17.5480 C.ar      1 MOL         0.1113
     18 C18       -13.1850   -2.2840    7.1050 C.2       1 MOL         0.0070
     19 C19       -12.2340   -3.1940    6.8320 C.2       1 MOL         0.0904
     20 C20       -13.6570   -3.4660    9.2400 C.2       1 MOL         0.1233
     21 C21       -13.9300   -2.4020    8.3310 C.2       1 MOL         0.1037
     22 C22       -12.6180   -4.4460    8.9290 C.2       1 MOL         0.2256
     23 C23       -14.4480   -3.5370   10.5040 C.2       1 MOL         0.1960
     24 C24       -16.3450   -0.9920    6.6320 C.3       1 MOL        -0.0361
     25 C25       -15.2390   -0.4600    7.5050 C.3       1 MOL         0.0731
     26 N26       -17.8430  -10.2850   16.4390 N.ar      1 MOL        -0.3002
     27 N27       -11.9420   -4.2450    7.6980 N.am      1 MOL        -0.1629
     28 N28       -17.4740  -10.3190   18.7140 N.pl3     1 MOL        -0.3243
     29 N29       -14.1340   -4.5740   11.3320 N.am      1 MOL        -0.2490
     30 O30       -12.3140   -5.3950    9.6510 O.2       1 MOL        -0.4157
     31 O31       -15.3140   -2.7040   10.7640 O.2       1 MOL        -0.4061
     32 O32       -16.0680   -6.5060   16.2150 O.3       1 MOL        -0.2602
     33 O33       -14.8840   -1.4440    8.5400 O.3       1 MOL        -0.3088
     34 F34        -7.9890   -7.8360    6.2240 F         1 MOL        -0.1916
     35 F35       -17.3370   -4.4630   14.9860 F         1 MOL        -0.1924
     36 CL36      -16.1530   -7.6340   18.9050 Cl        1 MOL        -0.0805
     37 H1         -9.3356   -3.7077    7.3635 H         1 MOL         0.0552
     38 H2        -12.2585   -6.8445    7.1766 H         1 MOL         0.0552
     39 H3        -13.1424   -6.4612   12.6960 H         1 MOL         0.0447
     40 H4        -13.9224   -7.3734   14.8486 H         1 MOL         0.0509
     41 H5         -7.5683   -5.3227    6.7042 H         1 MOL         0.0580
     42 H6        -10.4889   -8.4522    6.5206 H         1 MOL         0.0580
     43 H7        -17.0943   -7.9145   14.1464 H         1 MOL         0.0537
     44 H8        -16.3677   -3.6248   12.7223 H         1 MOL         0.0465
     45 H9        -18.1158  -10.1330   14.3791 H         1 MOL         0.0749
     46 H10       -13.3885   -1.4707    6.4099 H         1 MOL         0.0405
     47 H11       -11.6731   -3.1065    5.9026 H         1 MOL         0.1299
     48 H12       -16.5979   -0.2453    5.8648 H         1 MOL         0.0256
     49 H13       -17.2319   -1.1986    7.2489 H         1 MOL         0.0256
     50 H14       -16.0130   -1.9205    6.1445 H         1 MOL         0.0256
     51 H15       -15.5741    0.4695    7.9884 H         1 MOL         0.0623
     52 H16       -14.3551   -0.2524    6.8840 H         1 MOL         0.0623
     53 H17       -17.9141  -11.2495   18.7504 H         1 MOL         0.1765
     54 H18       -17.1180   -9.8836   19.5769 H         1 MOL         0.1765
     55 H19       -13.3743   -5.1413   11.0143 H         1 MOL         0.2198
@<TRIPOS>BOND
     1    1    5 ar 
     2   10    1 ar 
     3    2    6 ar 
     4   10    2 ar 
     5    3    4 ar 
     6   11    3 ar 
     7    4   12 ar 
     8    5   14 ar 
     9    6   14 ar 
    10    7    9 ar 
    11   13    7 ar 
    12   11    8 ar 
    13    8   15 ar 
    14    9   26 ar 
    15   27   10 1  
    16   29   11 1  
    17   15   12 ar 
    18   12   32 1  
    19   13   16 ar 
    20   32   13 1  
    21   14   34 1  
    22   15   35 1  
    23   16   17 ar 
    24   16   36 1  
    25   17   26 ar 
    26   17   28 1  
    27   18   19 2  
    28   21   18 1  
    29   19   27 1  
    30   21   20 2  
    31   20   22 1  
    32   20   23 1  
    33   33   21 1  
    34   22   27 am 
    35   22   30 2  
    36   23   29 am 
    37   23   31 2  
    38   25   24 1  
    39   25   33 1  
    40    1   37 1  
    41    2   38 1  
    42    3   39 1  
    43    4   40 1  
    44    5   41 1  
    45    6   42 1  
    46    7   43 1  
    47    8   44 1  
    48    9   45 1  
    49   18   46 1  
    50   19   47 1  
    51   24   48 1  
    52   24   49 1  
    53   24   50 1  
    54   25   51 1  
    55   25   52 1  
    56   28   53 1  
    57   28   54 1  
    58   29   55 1  
@<TRIPOS>SUBSTRUCTURE
     1 MOL         1

