### 
### Created by X-TOOL on Mon Aug  2 16:16:51 2021
### 

@<TRIPOS>MOLECULE
6sde_ligand
   41    45     1     0     0
SMALL
GAST_HUCK


@<TRIPOS>ATOM
      1 C1         20.5380   31.2150   54.9570 C.3       1 V0L         0.1192
      2 C8         19.5540   31.9710   55.8070 C.2       1 V0L         0.0267
      3 C9         18.1930   31.4920   56.0800 C.2       1 V0L        -0.0523
      4 C10        17.3180   32.2040   56.8640 C.2       1 V0L        -0.0189
      5 C11        17.7430   33.4380   57.4280 C.2       1 V0L         0.1301
      6 N1         19.0350   33.8680   57.1570 N.pl3     1 V0L        -0.2170
      7 C13        19.8930   33.1460   56.3710 C.2       1 V0L         0.0822
      8 C14        19.2120   35.0710   57.8070 C.2       1 V0L         0.0473
      9 C15        18.0400   35.3280   58.4360 C.2       1 V0L        -0.0357
     10 N2         17.1240   34.3230   58.2060 N.2       1 V0L        -0.3484
     11 C17        20.0450   30.9260   53.5420 C.3       1 V0L        -0.0243
     12 N3         20.9050   29.9690   55.6580 N.pl3     1 V0L        -0.1269
     13 C19        21.9270   29.6850   56.5070 C.ar      1 V0L         0.2058
     14 C20        21.8290   28.3370   56.9030 C.ar      1 V0L         0.1687
     15 N5         20.6970   27.8890   56.2290 N.2       1 V0L        -0.1746
     16 N4         20.1630   28.8350   55.5160 N.2       1 V0L        -0.0613
     17 N23        22.7580   27.8630   57.7490 N.ar      1 V0L        -0.2708
     18 N24        22.8840   30.5290   56.9180 N.ar      1 V0L        -0.2583
     19 C25        23.7980   30.0220   57.7600 C.ar      1 V0L         0.0547
     20 C26        23.7260   28.6920   58.1680 C.ar      1 V0L         0.0312
     21 C27        24.8650   30.9400   58.2200 C.2       1 V0L         0.0250
     22 C28        25.0230   32.2880   57.8620 C.2       1 V0L         0.0111
     23 N8         26.0800   32.8390   58.4380 N.2       1 V0L        -0.2105
     24 N9         26.6340   31.8170   59.1990 N.pl3     1 V0L        -0.2013
     25 C31        25.9140   30.6960   59.0720 C.2       1 V0L         0.0719
     26 C32        27.8340   32.0210   60.0050 C.3       1 V0L         0.0628
     27 H1         21.4418   31.8350   54.8639 H         1 V0L         0.0804
     28 H2         17.8683   30.5461   55.6490 H         1 V0L         0.0618
     29 H3         16.3130   31.8285   57.0509 H         1 V0L         0.0582
     30 H4         20.8931   33.5391   56.1943 H         1 V0L         0.1090
     31 H5         20.1095   35.6878   57.8134 H         1 V0L         0.0775
     32 H6         17.8468   36.2113   59.0429 H         1 V0L         0.0483
     33 H7         19.7797   31.8713   53.0460 H         1 V0L         0.0279
     34 H8         19.1595   30.2750   53.5880 H         1 V0L         0.0279
     35 H9         20.8404   30.4235   52.9720 H         1 V0L         0.0279
     36 H10        24.4796   28.3131   58.8489 H         1 V0L         0.0829
     37 H11        24.3530   32.8196   57.1878 H         1 V0L         0.0690
     38 H12        26.1251   29.7472   59.5631 H         1 V0L         0.1096
     39 H13        28.0930   31.0845   60.5206 H         1 V0L         0.0610
     40 H14        27.6464   32.8093   60.7489 H         1 V0L         0.0610
     41 H15        28.6668   32.3229   59.3529 H         1 V0L         0.0610
@<TRIPOS>BOND
     1    1    2 1  
     2    1   11 1  
     3    1   12 1  
     4    2    3 1  
     5    2    7 2  
     6    3    4 2  
     7    4    5 1  
     8    5    6 1  
     9    5   10 2  
    10    6    7 1  
    11    6    8 1  
    12    8    9 2  
    13    9   10 1  
    14   12   13 1  
    15   12   16 1  
    16   13   14 ar 
    17   13   18 ar 
    18   14   15 1  
    19   14   17 ar 
    20   15   16 2  
    21   17   20 ar 
    22   18   19 ar 
    23   19   20 ar 
    24   19   21 1  
    25   21   22 1  
    26   21   25 2  
    27   22   23 2  
    28   23   24 1  
    29   24   25 1  
    30   24   26 1  
    31    1   27 1  
    32    3   28 1  
    33    4   29 1  
    34    7   30 1  
    35    8   31 1  
    36    9   32 1  
    37   11   33 1  
    38   11   34 1  
    39   11   35 1  
    40   20   36 1  
    41   22   37 1  
    42   25   38 1  
    43   26   39 1  
    44   26   40 1  
    45   26   41 1  
@<TRIPOS>SUBSTRUCTURE
     1 V0L         1

