### 
### Created by X-TOOL on Sat Aug  7 21:31:21 2021
### 

@<TRIPOS>MOLECULE
6sfc_ligand
   39    42     1     0     0
SMALL
GAST_HUCK


@<TRIPOS>ATOM
      1 C1         34.5850   -0.7500   35.5720 C.2       1 L9T        -0.0118
      2 C2         32.7860   -1.0970   36.7560 C.2       1 L9T         0.1692
      3 C3         30.6070   -1.5150   37.9150 C.3       1 L9T         0.0537
      4 C7         27.6010   -0.6450   35.0460 C.ar      1 L9T        -0.0481
      5 C8         28.0820    0.2820   35.9550 C.ar      1 L9T         0.1167
      6 C9         28.5670    2.1300   37.1360 C.3       1 L9T         0.1850
      7 C10        29.0430   -0.0380   36.8820 C.ar      1 L9T         0.1257
      8 C11        34.4120    0.5450   36.0080 C.2       1 L9T         0.0397
      9 C12        35.5270    1.3120   35.8240 C.2       1 L9T         0.0211
     10 C13        36.6690    0.9200   35.0290 C.2       1 L9T        -0.0485
     11 C14        37.3830    2.0530   34.8460 C.2       1 L9T         0.0456
     12 C15        37.0830    4.4370   35.5810 C.3       1 L9T         0.0575
     13 N2         36.7030    3.0380   35.4690 N.pl3     1 L9T        -0.2195
     14 N3         35.4890    2.6470   35.9200 N.2       1 L9T        -0.2320
     15 S          32.9590    0.6240   36.9690 S.3       1 L9T         0.0053
     16 N          33.7960   -1.6680   36.1850 N.2       1 L9T        -0.3082
     17 C          35.7680   -1.3420   34.8800 C.3       1 L9T        -0.0318
     18 N1         31.6150   -1.7240   36.8960 N.3       1 L9T        -0.2162
     19 C4         29.3630   -1.3730   37.0970 C.ar      1 L9T        -0.0024
     20 C5         29.0050   -2.2880   36.1050 C.ar      1 L9T        -0.0780
     21 O2         27.7760    1.6240   36.0540 O.3       1 L9T        -0.2932
     22 O1         29.3140    1.0450   37.6950 O.3       1 L9T        -0.2955
     23 C6         28.0930   -1.9400   35.1170 C.ar      1 L9T        -0.0881
     24 H1         30.8093   -0.6034   38.4963 H         1 L9T         0.0628
     25 H2         30.5417   -2.3768   38.5954 H         1 L9T         0.0628
     26 H3         26.8630   -0.3674   34.3021 H         1 L9T         0.0456
     27 H4         27.9108    2.5642   37.9047 H         1 L9T         0.0970
     28 H5         29.2560    2.9022   36.7632 H         1 L9T         0.0970
     29 H6         36.9040   -0.0761   34.6568 H         1 L9T         0.0322
     30 H7         38.3218    2.1515   34.3029 H         1 L9T         0.0983
     31 H8         36.3150    4.9811   36.1504 H         1 L9T         0.0600
     32 H9         37.1725    4.8743   34.5756 H         1 L9T         0.0600
     33 H10        38.0489    4.5141   36.1017 H         1 L9T         0.0600
     34 H11        35.5765   -2.4049   34.6710 H         1 L9T         0.0381
     35 H12        36.6544   -1.2490   35.5247 H         1 L9T         0.0381
     36 H13        35.9447   -0.8084   33.9344 H         1 L9T         0.0381
     37 H14        31.8729   -2.7696   36.9774 H         1 L9T         0.1725
     38 H15        29.4431   -3.2795   36.1060 H         1 L9T         0.0437
     39 H16        27.7646   -2.6828   34.3990 H         1 L9T         0.0479
@<TRIPOS>BOND
     1    1    8 2  
     2   16    1 1  
     3    1   17 1  
     4    2   15 1  
     5    2   16 2  
     6   18    2 1  
     7    3   18 1  
     8   19    3 1  
     9    5    4 ar 
    10    4   23 ar 
    11    7    5 ar 
    12    5   21 1  
    13   21    6 1  
    14    6   22 1  
    15   19    7 ar 
    16    7   22 1  
    17    8    9 1  
    18   15    8 1  
    19    9   10 1  
    20    9   14 2  
    21   10   11 2  
    22   11   13 1  
    23   13   12 1  
    24   14   13 1  
    25   19   20 ar 
    26   20   23 ar 
    27    3   24 1  
    28    3   25 1  
    29    4   26 1  
    30    6   27 1  
    31    6   28 1  
    32   10   29 1  
    33   11   30 1  
    34   12   31 1  
    35   12   32 1  
    36   12   33 1  
    37   17   34 1  
    38   17   35 1  
    39   17   36 1  
    40   18   37 1  
    41   20   38 1  
    42   23   39 1  
@<TRIPOS>SUBSTRUCTURE
     1 L9T         1

