### 
### Created by X-TOOL on Mon Aug  2 16:16:52 2021
### 

@<TRIPOS>MOLECULE
6sfi_ligand
   68    71     1     0     0
SMALL
GAST_HUCK


@<TRIPOS>ATOM
      1 N1         55.5350   72.3050   12.2270 N.2       1 LB5        -0.2007
      2 C2         53.8840   76.3350   11.4910 C.ar      1 LB5        -0.0634
      3 O2         57.0850   71.7510   16.5290 O.2       1 LB5        -0.3991
      4 N3         58.1680   67.6200   18.0750 N.2       1 LB5        -0.3076
      5 C4         52.0930   75.2570   12.6580 C.ar      1 LB5        -0.0719
      6 N4         54.8050   66.0900   20.3680 N.am      1 LB5        -0.2673
      7 C5         52.9630   74.2800   13.1060 C.ar      1 LB5        -0.0304
      8 C6         54.3070   74.3360   12.7210 C.ar      1 LB5         0.1172
      9 C10        56.9720   71.1600   15.4580 C.2       1 LB5         0.1872
     10 C8         56.3380   71.8160   14.2970 C.2       1 LB5         0.0665
     11 C7         55.6890   73.0380   14.3530 C.2       1 LB5         0.0884
     12 C9         56.2010   71.4180   12.9490 C.2       1 LB5         0.0151
     13 N          55.1920   73.2810   13.1250 N.pl3     1 LB5        -0.1586
     14 C3         52.5530   76.2800   11.8500 C.ar      1 LB5        -0.0748
     15 C1         54.7950   75.3590   11.9230 C.ar      1 LB5        -0.0075
     16 C          56.2500   75.4760   11.5740 C.3       1 LB5        -0.0301
     17 N2         57.4760   69.9400   15.2570 N.am      1 LB5        -0.2709
     18 C11        58.2910   69.2830   16.2620 C.3       1 LB5         0.1033
     19 C12        57.5580   68.3820   17.2040 C.2       1 LB5         0.1218
     20 S          55.7980   68.3200   17.2340 S.3       1 LB5         0.0149
     21 C14        55.9220   67.2060   18.5530 C.2       1 LB5         0.1120
     22 C13        57.2230   66.9640   18.8600 C.2       1 LB5        -0.0031
     23 C15        54.6670   66.7010   19.1790 C.2       1 LB5         0.2069
     24 O1         53.5790   66.9150   18.6710 O.2       1 LB5        -0.3934
     25 C16        53.6780   65.4180   21.0370 C.3       1 LB5         0.1296
     26 C25        53.8150   65.5840   22.5590 C.2       1 LB5         0.1990
     27 O          54.3160   64.6790   23.2410 O.2       1 LB5        -0.3947
     28 N5         53.4790   66.7750   23.0740 N.am      1 LB5        -0.2990
     29 C17        53.6390   63.9510   20.5740 C.3       1 LB5        -0.0123
     30 C18        52.4420   63.1210   20.9850 C.3       1 LB5        -0.0460
     31 C19        51.0530   63.5220   20.4100 C.3       1 LB5        -0.0408
     32 C24        49.9950   62.5110   20.8380 C.3       1 LB5        -0.0502
     33 C23        48.6070   62.8520   20.3150 C.3       1 LB5        -0.0528
     34 C22        48.5980   62.9900   18.8270 C.3       1 LB5        -0.0530
     35 C21        49.6120   64.0290   18.3810 C.3       1 LB5        -0.0528
     36 C20        51.0220   63.6690   18.8840 C.3       1 LB5        -0.0502
     37 H1         54.2325   77.1473   10.8635 H         1 LB5         0.0539
     38 H2         51.0473   75.2206   12.9412 H         1 LB5         0.0544
     39 H3         55.7008   66.0917   20.8124 H         1 LB5         0.1867
     40 H4         52.6084   73.4811   13.7471 H         1 LB5         0.0573
     41 H5         55.5976   73.6820   15.2264 H         1 LB5         0.1094
     42 H6         56.5985   70.4865   12.5488 H         1 LB5         0.0694
     43 H7         51.8661   77.0410   11.4975 H         1 LB5         0.0546
     44 H8         56.4040   76.3581   10.9351 H         1 LB5         0.0380
     45 H9         56.5717   74.5725   11.0354 H         1 LB5         0.0380
     46 H10        56.8407   75.5833   12.4957 H         1 LB5         0.0380
     47 H11        57.2878   69.4688   14.3953 H         1 LB5         0.1875
     48 H12        58.7870   70.0633   16.8579 H         1 LB5         0.0794
     49 H13        59.0503   68.6814   15.7409 H         1 LB5         0.0794
     50 H14        57.5099   66.2969   19.6715 H         1 LB5         0.0669
     51 H15        52.7389   65.8995   20.7268 H         1 LB5         0.0798
     52 H16        53.5509   66.9321   24.0590 H         1 LB5         0.1815
     53 H17        53.1564   67.5065   22.4733 H         1 LB5         0.1815
     54 H18        54.5364   63.4554   20.9729 H         1 LB5         0.0312
     55 H19        53.6782   63.9511   19.4747 H         1 LB5         0.0312
     56 H20        52.3699   63.1686   22.0816 H         1 LB5         0.0270
     57 H21        52.6390   62.0841   20.6752 H         1 LB5         0.0270
     58 H22        50.7907   64.4994   20.8412 H         1 LB5         0.0301
     59 H23        49.9594   62.4836   21.9371 H         1 LB5         0.0268
     60 H24        50.2809   61.5200   20.4556 H         1 LB5         0.0268
     61 H25        48.2800   63.8017   20.7634 H         1 LB5         0.0265
     62 H26        47.9102   62.0512   20.6033 H         1 LB5         0.0265
     63 H27        47.5948   63.2995   18.4986 H         1 LB5         0.0265
     64 H28        48.8498   62.0205   18.3724 H         1 LB5         0.0265
     65 H29        49.3245   65.0105   18.7860 H         1 LB5         0.0265
     66 H30        49.6220   64.0745   17.2820 H         1 LB5         0.0265
     67 H31        51.3327   62.7180   18.4268 H         1 LB5         0.0268
     68 H32        51.7214   64.4644   18.5871 H         1 LB5         0.0268
@<TRIPOS>BOND
     1   12    1 2  
     2    1   13 1  
     3    2   14 ar 
     4   15    2 ar 
     5    9    3 2  
     6    4   19 2  
     7   22    4 1  
     8    7    5 ar 
     9    5   14 ar 
    10   23    6 am 
    11    6   25 1  
    12    8    7 ar 
    13   13    8 1  
    14    8   15 ar 
    15    9   10 1  
    16   17    9 am 
    17   10   11 2  
    18   10   12 1  
    19   11   13 1  
    20   15   16 1  
    21   18   17 1  
    22   19   18 1  
    23   20   19 1  
    24   21   20 1  
    25   21   22 2  
    26   21   23 1  
    27   23   24 2  
    28   25   26 1  
    29   25   29 1  
    30   26   27 2  
    31   26   28 am 
    32   29   30 1  
    33   30   31 1  
    34   31   32 1  
    35   31   36 1  
    36   32   33 1  
    37   33   34 1  
    38   34   35 1  
    39   35   36 1  
    40    2   37 1  
    41    5   38 1  
    42    6   39 1  
    43    7   40 1  
    44   11   41 1  
    45   12   42 1  
    46   14   43 1  
    47   16   44 1  
    48   16   45 1  
    49   16   46 1  
    50   17   47 1  
    51   18   48 1  
    52   18   49 1  
    53   22   50 1  
    54   25   51 1  
    55   28   52 1  
    56   28   53 1  
    57   29   54 1  
    58   29   55 1  
    59   30   56 1  
    60   30   57 1  
    61   31   58 1  
    62   32   59 1  
    63   32   60 1  
    64   33   61 1  
    65   33   62 1  
    66   34   63 1  
    67   34   64 1  
    68   35   65 1  
    69   35   66 1  
    70   36   67 1  
    71   36   68 1  
@<TRIPOS>SUBSTRUCTURE
     1 LB5         1

