### 
### Created by X-TOOL on Mon Aug  2 16:16:52 2021
### 

@<TRIPOS>MOLECULE
6sfj_ligand
   72    75     1     0     0
SMALL
GAST_HUCK


@<TRIPOS>ATOM
      1 N1         -3.0010   35.6810   22.7710 N.2       1 LBB        -0.2007
      2 C2         -5.1430   40.3660   16.6980 C.ar      1 LBB        -0.0675
      3 O2         -0.3810   40.8100   16.4640 O.2       1 LBB        -0.3877
      4 N3         -1.5730   42.2610   15.1970 N.am      1 LBB        -0.2661
      5 C4         -2.7630   40.8030   16.7720 C.ar      1 LBB         0.0293
      6 N4         -0.4250   45.0490   15.1720 N.am      1 LBB        -0.2990
      7 C5         -2.6530   39.8800   17.8210 C.ar      1 LBB        -0.0278
      8 C6         -3.7660   39.1640   18.2820 C.ar      1 LBB         0.0733
      9 C18        -1.4750   41.2970   16.1360 C.2       1 LBB         0.1987
     10 C19        -0.4400   42.7260   14.3900 C.3       1 LBB         0.1301
     11 C28        -0.5900   44.2340   14.1280 C.2       1 LBB         0.1991
     12 O1         -0.8350   44.6480   12.9870 O.2       1 LBB        -0.3947
     13 C20        -0.3850   41.9290   13.0790 C.3       1 LBB        -0.0122
     14 C21         0.8290   42.0920   12.1600 C.3       1 LBB        -0.0460
     15 C22         2.2100   41.7490   12.7010 C.3       1 LBB        -0.0408
     16 C27         3.2920   41.9370   11.6140 C.3       1 LBB        -0.0502
     17 C26         4.6840   41.4920   12.0690 C.3       1 LBB        -0.0528
     18 C25         4.6660   40.0760   12.5790 C.3       1 LBB        -0.0530
     19 C24         3.6550   39.9260   13.7160 C.3       1 LBB        -0.0528
     20 C23         2.2610   40.3340   13.2600 C.3       1 LBB        -0.0502
     21 C3         -4.0270   41.0480   16.2270 C.ar      1 LBB        -0.0638
     22 C1         -5.0560   39.4300   17.7350 C.ar      1 LBB        -0.0193
     23 C          -6.3120   38.8820   18.3790 C.3       1 LBB        -0.0328
     24 N          -3.7620   38.4020   19.4720 N.am      1 LBB        -0.2398
     25 C7         -3.4040   38.7440   20.6870 C.2       1 LBB         0.2103
     26 O          -3.4510   39.9200   21.0410 O.2       1 LBB        -0.3886
     27 C8         -3.1830   37.6660   21.6900 C.2       1 LBB         0.0720
     28 C10        -2.9130   37.9150   23.0210 C.2       1 LBB         0.0888
     29 N2         -2.8040   36.7190   23.6340 N.pl3     1 LBB        -0.1586
     30 C9         -3.2340   36.2610   21.6090 C.2       1 LBB         0.0155
     31 C11        -2.5250   36.4500   25.0090 C.ar      1 LBB         0.1172
     32 C16        -1.2110   36.4890   25.4710 C.ar      1 LBB        -0.0075
     33 C17        -0.0560   36.8500   24.5740 C.3       1 LBB        -0.0301
     34 C15        -0.9910   36.1850   26.8180 C.ar      1 LBB        -0.0634
     35 C14        -2.0380   35.8600   27.6630 C.ar      1 LBB        -0.0748
     36 C13        -3.3330   35.8390   27.1860 C.ar      1 LBB        -0.0719
     37 C12        -3.5920   36.1360   25.8570 C.ar      1 LBB        -0.0304
     38 H1         -6.1093   40.5650   16.2488 H         1 LBB         0.0527
     39 H2         -2.4671   42.6814   15.0429 H         1 LBB         0.1875
     40 H3         -0.5124   46.0380   15.0529 H         1 LBB         0.1815
     41 H4         -0.2140   44.6706   16.0733 H         1 LBB         0.1815
     42 H5         -1.6872   39.7166   18.2853 H         1 LBB         0.0529
     43 H6          0.4936   42.5550   14.9460 H         1 LBB         0.0799
     44 H7         -1.2724   42.2108   12.4933 H         1 LBB         0.0312
     45 H8         -0.4454   40.8638   13.3468 H         1 LBB         0.0312
     46 H9          0.8575   43.1458   11.8459 H         1 LBB         0.0270
     47 H10         0.6579   41.4521   11.2818 H         1 LBB         0.0270
     48 H11         2.4300   42.4449   13.5239 H         1 LBB         0.0301
     49 H12         3.3359   43.0025   11.3443 H         1 LBB         0.0268
     50 H13         3.0071   41.3466   10.7307 H         1 LBB         0.0268
     51 H14         5.0280   42.1583   12.8738 H         1 LBB         0.0265
     52 H15         5.3772   41.5573   11.2174 H         1 LBB         0.0265
     53 H16         5.6678   39.8123   12.9490 H         1 LBB         0.0265
     54 H17         4.3888   39.3993   11.7573 H         1 LBB         0.0265
     55 H18         3.9607   40.5661   14.5567 H         1 LBB         0.0265
     56 H19         3.6340   38.8760   14.0433 H         1 LBB         0.0265
     57 H20         1.9295   39.6355   12.4776 H         1 LBB         0.0268
     58 H21         1.5783   40.2718   14.1203 H         1 LBB         0.0268
     59 H22        -4.1376   41.7754   15.4310 H         1 LBB         0.0525
     60 H23        -7.1908   39.2040   17.8011 H         1 LBB         0.0372
     61 H24        -6.3914   39.2608   19.4086 H         1 LBB         0.0372
     62 H25        -6.2663   37.7831   18.3951 H         1 LBB         0.0372
     63 H26        -4.0803   37.4592   19.3731 H         1 LBB         0.2222
     64 H27        -2.8079   38.8932   23.4878 H         1 LBB         0.1093
     65 H28        -3.4424   35.7145   20.6904 H         1 LBB         0.0694
     66 H29         0.8804   36.8159   25.1503 H         1 LBB         0.0380
     67 H30        -0.2044   37.8644   24.1754 H         1 LBB         0.0380
     68 H31        -0.0004   36.1333   23.7414 H         1 LBB         0.0380
     69 H32         0.0201   36.2042   27.2084 H         1 LBB         0.0539
     70 H33        -1.8404   35.6214   28.7018 H         1 LBB         0.0546
     71 H34        -4.1503   35.5894   27.8529 H         1 LBB         0.0544
     72 H35        -4.6082   36.1250   25.4799 H         1 LBB         0.0573
@<TRIPOS>BOND
     1    1   29 1  
     2   30    1 2  
     3    2   21 ar 
     4   22    2 ar 
     5    9    3 2  
     6    9    4 am 
     7    4   10 1  
     8    7    5 ar 
     9    5    9 1  
    10    5   21 ar 
    11   11    6 am 
    12    8    7 ar 
    13    8   22 ar 
    14   24    8 1  
    15   10   11 1  
    16   10   13 1  
    17   11   12 2  
    18   13   14 1  
    19   14   15 1  
    20   15   16 1  
    21   15   20 1  
    22   16   17 1  
    23   17   18 1  
    24   19   18 1  
    25   20   19 1  
    26   22   23 1  
    27   25   24 am 
    28   25   26 2  
    29   27   25 1  
    30   27   28 2  
    31   27   30 1  
    32   28   29 1  
    33   29   31 1  
    34   31   32 ar 
    35   31   37 ar 
    36   32   33 1  
    37   32   34 ar 
    38   34   35 ar 
    39   35   36 ar 
    40   36   37 ar 
    41    2   38 1  
    42    4   39 1  
    43    6   40 1  
    44    6   41 1  
    45    7   42 1  
    46   10   43 1  
    47   13   44 1  
    48   13   45 1  
    49   14   46 1  
    50   14   47 1  
    51   15   48 1  
    52   16   49 1  
    53   16   50 1  
    54   17   51 1  
    55   17   52 1  
    56   18   53 1  
    57   18   54 1  
    58   19   55 1  
    59   19   56 1  
    60   20   57 1  
    61   20   58 1  
    62   21   59 1  
    63   23   60 1  
    64   23   61 1  
    65   23   62 1  
    66   24   63 1  
    67   28   64 1  
    68   30   65 1  
    69   33   66 1  
    70   33   67 1  
    71   33   68 1  
    72   34   69 1  
    73   35   70 1  
    74   36   71 1  
    75   37   72 1  
@<TRIPOS>SUBSTRUCTURE
     1 LBB         1

