### 
### Created by X-TOOL on Mon Aug  2 16:16:52 2021
### 

@<TRIPOS>MOLECULE
6sfk_ligand
   72    75     1     0     0
SMALL
GAST_HUCK


@<TRIPOS>ATOM
      1 N1         -2.5250   35.6770   22.5290 N.2       1 LB8        -0.1318
      2 C2         -5.1810   40.2370   16.5310 C.ar      1 LB8        -0.0673
      3 O2         -0.4170   40.5730   16.0190 O.2       1 LB8        -0.3877
      4 N3         -1.6350   42.1260   14.9430 N.am      1 LB8        -0.2661
      5 C4         -2.7860   40.5350   16.3920 C.ar      1 LB8         0.0295
      6 N4         -0.5250   44.8630   15.2560 N.am      1 LB8        -0.2990
      7 C5         -2.6450   39.6730   17.4670 C.ar      1 LB8        -0.0275
      8 C6         -3.7650   39.1010   18.0810 C.ar      1 LB8         0.0745
      9 C18        -1.5180   41.0850   15.7770 C.2       1 LB8         0.1987
     10 C19        -0.4860   42.6590   14.2080 C.3       1 LB8         0.1301
     11 C28        -0.5980   44.1890   14.1190 C.2       1 LB8         0.1991
     12 O1         -0.7930   44.7310   13.0310 O.2       1 LB8        -0.3947
     13 C20        -0.4110   41.9550   12.8400 C.3       1 LB8        -0.0122
     14 C21         0.8150   42.0650   11.9130 C.3       1 LB8        -0.0460
     15 C22         2.1870   41.6570   12.5000 C.3       1 LB8        -0.0408
     16 C27         3.2780   41.8630   11.4620 C.3       1 LB8        -0.0502
     17 C26         4.6530   41.4180   11.9590 C.3       1 LB8        -0.0528
     18 C25         4.6410   39.9750   12.4350 C.3       1 LB8        -0.0530
     19 C24         3.5880   39.7740   13.5060 C.3       1 LB8        -0.0528
     20 C23         2.2130   40.2060   12.9950 C.3       1 LB8        -0.0502
     21 C3         -4.0670   40.8110   15.9230 C.ar      1 LB8        -0.0636
     22 C1         -5.0600   39.3860   17.6200 C.ar      1 LB8        -0.0189
     23 C          -6.2940   38.8270   18.3220 C.3       1 LB8        -0.0327
     24 N          -3.6130   38.2870   19.2470 N.am      1 LB8        -0.2327
     25 C7         -3.0310   38.6840   20.3840 C.2       1 LB8         0.2469
     26 O          -2.6620   39.8350   20.5760 O.2       1 LB8        -0.3659
     27 C8         -2.8660   37.6400   21.4520 C.2       1 LB8         0.1221
     28 C16        -2.4840   37.9250   22.7580 C.2       1 LB8         0.1904
     29 C17        -2.3010   39.2360   23.4530 C.3       1 LB8         0.3924
     30 F2         -2.2760   39.1140   24.7820 F         1 LB8        -0.2373
     31 F1         -1.1410   39.8740   23.1120 F         1 LB8        -0.2373
     32 F          -3.2800   40.0680   23.1830 F         1 LB8        -0.2373
     33 N2         -2.2720   36.7260   23.3670 N.pl3     1 LB8        -0.1222
     34 C9         -2.8970   36.2370   21.3850 C.2       1 LB8         0.0791
     35 C10        -1.7080   36.4520   24.6490 C.ar      1 LB8         0.1260
     36 C15        -2.4980   35.9220   25.6640 C.ar      1 LB8        -0.0209
     37 C14        -1.9350   35.6600   26.9080 C.ar      1 LB8        -0.0631
     38 C13        -0.6050   35.9480   27.1470 C.ar      1 LB8        -0.0663
     39 C12         0.1760   36.4950   26.1410 C.ar      1 LB8        -0.0631
     40 C11        -0.3690   36.7410   24.8870 C.ar      1 LB8        -0.0209
     41 H1         -6.1682   40.4610   16.1432 H         1 LB8         0.0527
     42 H2         -2.5316   42.5511   14.8186 H         1 LB8         0.1875
     43 H3         -0.5925   45.8607   15.2510 H         1 LB8         0.1815
     44 H4         -0.4023   44.3744   16.1199 H         1 LB8         0.1815
     45 H5         -1.6538   39.4383   17.8377 H         1 LB8         0.0530
     46 H6          0.4333   42.4211   14.7631 H         1 LB8         0.0799
     47 H7         -1.2669   42.3279   12.2583 H         1 LB8         0.0312
     48 H8         -0.5446   40.8820   13.0420 H         1 LB8         0.0312
     49 H9          0.8923   43.1138   11.5904 H         1 LB8         0.0270
     50 H10         0.6264   41.4252   11.0383 H         1 LB8         0.0270
     51 H11         2.3948   42.3117   13.3592 H         1 LB8         0.0301
     52 H12         3.3245   42.9320   11.2070 H         1 LB8         0.0268
     53 H13         3.0234   41.2824   10.5631 H         1 LB8         0.0268
     54 H14         4.9565   42.0660   12.7944 H         1 LB8         0.0265
     55 H15         5.3775   41.5158   11.1371 H         1 LB8         0.0265
     56 H16         5.6288   39.7225   12.8478 H         1 LB8         0.0265
     57 H17         4.4201   39.3153   11.5829 H         1 LB8         0.0265
     58 H18         3.8509   40.3749   14.3890 H         1 LB8         0.0265
     59 H19         3.5528   38.7102   13.7836 H         1 LB8         0.0265
     60 H20         1.9251   39.5465   12.1630 H         1 LB8         0.0268
     61 H21         1.4861   40.1018   13.8140 H         1 LB8         0.0268
     62 H22        -4.1987   41.4776   15.0784 H         1 LB8         0.0526
     63 H23        -7.1996   39.1709   17.8009 H         1 LB8         0.0373
     64 H24        -6.3144   39.1794   19.3638 H         1 LB8         0.0373
     65 H25        -6.2578   37.7277   18.3074 H         1 LB8         0.0373
     66 H26        -3.9677   37.3528   19.2095 H         1 LB8         0.2236
     67 H27        -3.1914   35.6758   20.4994 H         1 LB8         0.0878
     68 H28        -3.5469   35.7144   25.4860 H         1 LB8         0.0608
     69 H29        -2.5428   35.2275   27.6945 H         1 LB8         0.0607
     70 H30        -0.1727   35.7463   28.1204 H         1 LB8         0.0578
     71 H31         1.2162   36.7318   26.3335 H         1 LB8         0.0607
     72 H32         0.2470   37.1564   24.0976 H         1 LB8         0.0608
@<TRIPOS>BOND
     1    1   33 1  
     2   34    1 2  
     3    2   21 ar 
     4   22    2 ar 
     5    9    3 2  
     6    9    4 am 
     7    4   10 1  
     8    7    5 ar 
     9    5    9 1  
    10    5   21 ar 
    11   11    6 am 
    12    8    7 ar 
    13    8   22 ar 
    14   24    8 1  
    15   10   11 1  
    16   10   13 1  
    17   11   12 2  
    18   13   14 1  
    19   14   15 1  
    20   15   16 1  
    21   15   20 1  
    22   16   17 1  
    23   17   18 1  
    24   19   18 1  
    25   20   19 1  
    26   22   23 1  
    27   25   24 am 
    28   25   26 2  
    29   27   25 1  
    30   27   28 2  
    31   27   34 1  
    32   28   29 1  
    33   28   33 1  
    34   29   30 1  
    35   29   31 1  
    36   29   32 1  
    37   33   35 1  
    38   35   36 ar 
    39   35   40 ar 
    40   36   37 ar 
    41   37   38 ar 
    42   38   39 ar 
    43   39   40 ar 
    44    2   41 1  
    45    4   42 1  
    46    6   43 1  
    47    6   44 1  
    48    7   45 1  
    49   10   46 1  
    50   13   47 1  
    51   13   48 1  
    52   14   49 1  
    53   14   50 1  
    54   15   51 1  
    55   16   52 1  
    56   16   53 1  
    57   17   54 1  
    58   17   55 1  
    59   18   56 1  
    60   18   57 1  
    61   19   58 1  
    62   19   59 1  
    63   20   60 1  
    64   20   61 1  
    65   21   62 1  
    66   23   63 1  
    67   23   64 1  
    68   23   65 1  
    69   24   66 1  
    70   34   67 1  
    71   36   68 1  
    72   37   69 1  
    73   38   70 1  
    74   39   71 1  
    75   40   72 1  
@<TRIPOS>SUBSTRUCTURE
     1 LB8         1

