### 
### Created by X-TOOL on Mon Aug  2 16:11:32 2021
### 

@<TRIPOS>MOLECULE
6slg_ligand
   60    64     1     0     0
SMALL
GAST_HUCK


@<TRIPOS>ATOM
      1 C1         -5.9410    2.6330   12.0070 C.ar      1 LHZ        -0.0072
      2 C2         -7.2790    2.3160   12.2070 C.ar      1 LHZ         0.0089
      3 C3         -7.5910    4.0750   13.5950 C.ar      1 LHZ         0.1995
      4 N6         -8.6290    7.5130   16.6990 N.2       1 LHZ        -0.2409
      5 C7         -1.9780    4.5330   12.3500 C.2       1 LHZ         0.2191
      6 C8         -0.6470    4.6280   11.6920 C.2       1 LHZ         0.2591
      7 C9          0.0390    6.2770   13.4490 C.3       1 LHZ         0.0988
      8 C10        -1.1070    5.8040   14.3200 C.3       1 LHZ         0.0882
      9 C11        -0.1790    7.7370   13.0900 C.3       1 LHZ         0.0733
     10 C12        -1.5700    9.1680   11.8680 C.3       1 LHZ         0.0365
     11 C13         1.6300    5.4880   11.6970 C.3       1 LHZ         0.0651
     12 C14         1.8610    6.4290   10.5300 C.ar      1 LHZ        -0.0265
     13 C15         3.1540    6.6530   10.0700 C.ar      1 LHZ        -0.0641
     14 C16         3.4030    7.5110    9.0130 C.ar      1 LHZ        -0.0365
     15 C19         0.8000    7.0810    9.9010 C.ar      1 LHZ        -0.0265
     16 C20        -8.1130    5.9130   15.2030 C.2       1 LHZ         0.1793
     17 C21        -6.9920    6.1350   15.9720 C.2       1 LHZ        -0.0303
     18 C22        -7.3750    7.1160   16.8790 C.2       1 LHZ        -0.0260
     19 F1          2.5670    9.0440    7.4290 F         1 LHZ        -0.1901
     20 C17         2.3440    8.1490    8.4190 C.ar      1 LHZ         0.1576
     21 C18         1.0620    7.9330    8.8530 C.ar      1 LHZ         0.1588
     22 F           0.0450    8.5960    8.2530 F         1 LHZ        -0.1861
     23 N4          0.2710    5.4630   12.2430 N.am      1 LHZ        -0.2488
     24 O1         -1.3560    7.8440   12.3180 O.3       1 LHZ        -0.3806
     25 N2         -2.1870    5.2640   13.4900 N.pl3     1 LHZ        -0.2240
     26 C6         -3.5130    5.1720   13.7770 C.2       1 LHZ         0.0677
     27 O          -0.4040    3.9460   10.7040 O.2       1 LHZ        -0.3745
     28 N3         -3.0970    3.9130   11.9610 N.2       1 LHZ        -0.2916
     29 C5         -4.0470    4.2860   12.8810 C.2       1 LHZ         0.0569
     30 C4         -5.4330    3.7990   12.8090 C.ar      1 LHZ         0.0493
     31 C          -5.0810    1.7590   11.1250 C.3       1 LHZ        -0.0275
     32 N1         -6.3090    4.4850   13.5600 N.ar      1 LHZ        -0.2637
     33 N          -8.1200    3.0010   12.9900 N.ar      1 LHZ        -0.2668
     34 N5         -8.4340    4.9050   14.3000 N.pl3     1 LHZ        -0.2191
     35 N7         -9.0640    6.7550   15.6550 N.pl3     1 LHZ        -0.1911
     36 C23       -10.3990    7.0000   15.1170 C.3       1 LHZ         0.0585
     37 H1         -7.6710    1.4480   11.6894 H         1 LHZ         0.0805
     38 H2          0.9545    6.2124   14.0554 H         1 LHZ         0.0612
     39 H3         -1.4900    6.6514   14.9076 H         1 LHZ         0.0656
     40 H4         -0.7455    5.0192   15.0008 H         1 LHZ         0.0656
     41 H5          0.6789    8.1072   12.5096 H         1 LHZ         0.0584
     42 H6         -0.2842    8.3322   14.0091 H         1 LHZ         0.0584
     43 H7         -2.4940    9.2080   11.2724 H         1 LHZ         0.0524
     44 H8         -0.7196    9.4863   11.2472 H         1 LHZ         0.0524
     45 H9         -1.6630    9.8393   12.7344 H         1 LHZ         0.0524
     46 H10         2.3128    5.7831   12.5074 H         1 LHZ         0.0677
     47 H11         1.8768    4.4697   11.3621 H         1 LHZ         0.0677
     48 H12         3.9835    6.1454   10.5489 H         1 LHZ         0.0514
     49 H13         4.4151    7.6756    8.6614 H         1 LHZ         0.0576
     50 H14        -0.2187    6.9182   10.2340 H         1 LHZ         0.0533
     51 H15        -6.0209    5.6495   15.8879 H         1 LHZ         0.0202
     52 H16        -6.7192    7.5148   17.6516 H         1 LHZ         0.0603
     53 H17        -4.0461    5.7004   14.5660 H         1 LHZ         0.1052
     54 H18        -5.7052    0.9838   10.6566 H         1 LHZ         0.0388
     55 H19        -4.2984    1.2817   11.7331 H         1 LHZ         0.0388
     56 H20        -4.6131    2.3749   10.3429 H         1 LHZ         0.0388
     57 H21        -9.4404    4.7593   14.1361 H         1 LHZ         0.2218
     58 H22       -10.5916    6.3073   14.2845 H         1 LHZ         0.0590
     59 H23       -10.4636    8.0364   14.7540 H         1 LHZ         0.0590
     60 H24       -11.1476    6.8409   15.9071 H         1 LHZ         0.0590
@<TRIPOS>BOND
     1    1    2 ar 
     2   30    1 ar 
     3    1   31 1  
     4    2   33 ar 
     5    3   32 ar 
     6   33    3 ar 
     7    3   34 1  
     8    4   18 2  
     9   35    4 1  
    10    5    6 1  
    11    5   25 1  
    12   28    5 2  
    13    6   23 am 
    14    6   27 2  
    15    8    7 1  
    16    7    9 1  
    17   23    7 1  
    18   25    8 1  
    19    9   24 1  
    20   24   10 1  
    21   11   12 1  
    22   23   11 1  
    23   12   13 ar 
    24   12   15 ar 
    25   13   14 ar 
    26   14   20 ar 
    27   15   21 ar 
    28   16   17 2  
    29   34   16 1  
    30   16   35 1  
    31   17   18 1  
    32   20   19 1  
    33   21   20 ar 
    34   21   22 1  
    35   26   25 1  
    36   29   26 2  
    37   29   28 1  
    38   29   30 1  
    39   30   32 ar 
    40   35   36 1  
    41    2   37 1  
    42    7   38 1  
    43    8   39 1  
    44    8   40 1  
    45    9   41 1  
    46    9   42 1  
    47   10   43 1  
    48   10   44 1  
    49   10   45 1  
    50   11   46 1  
    51   11   47 1  
    52   13   48 1  
    53   14   49 1  
    54   15   50 1  
    55   17   51 1  
    56   18   52 1  
    57   26   53 1  
    58   31   54 1  
    59   31   55 1  
    60   31   56 1  
    61   34   57 1  
    62   36   58 1  
    63   36   59 1  
    64   36   60 1  
@<TRIPOS>SUBSTRUCTURE
     1 LHZ         1

