### 
### Created by X-TOOL on Mon Aug  2 16:16:52 2021
### 

@<TRIPOS>MOLECULE
6sq0_ligand
   58    62     1     0     0
SMALL
GAST_HUCK


@<TRIPOS>ATOM
      1 C1         35.8770   11.3400    9.2610 C.3       1 LRQ        -0.0261
      2 C2         34.8070   10.9180   10.2450 C.3       1 LRQ         0.1454
      3 C3         34.8830   11.7810   11.4910 C.3       1 LRQ        -0.0261
      4 C8         31.4210    8.8420    9.1200 C.3       1 LRQ        -0.0079
      5 C9         30.2610    9.7400    8.6910 C.3       1 LRQ        -0.0584
      6 C10        30.6350   11.2160    8.7400 C.3       1 LRQ        -0.0601
      7 C11        31.1090   11.5530   10.1710 C.3       1 LRQ        -0.0173
      8 C12        29.9690   11.1190   11.0460 C.2       1 LRQ         0.0477
      9 C13        29.9400    9.9300   11.7160 C.2       1 LRQ         0.0112
     10 C14        28.7000    9.8890   12.4400 C.ar      1 LRQ         0.0315
     11 C15        28.0960    8.9690   13.2910 C.ar      1 LRQ        -0.0509
     12 C16        26.8540    9.2510   13.8400 C.ar      1 LRQ        -0.0625
     13 C19        28.0240   11.0880   12.1570 C.ar      1 LRQ         0.0835
     14 C21        31.0530    8.9330   11.6370 C.3       1 LRQ         0.0397
     15 C22        31.4800   12.9910   10.5580 C.ar      1 LRQ         0.0131
     16 C24        31.9990   15.3200   10.0830 C.ar      1 LRQ        -0.0128
     17 C27        31.6900   13.3050   11.9180 C.ar      1 LRQ         0.1366
     18 F35        35.0670    9.6020   10.5820 F         1 LRQ        -0.2369
     19 C4         33.4020   11.0540    9.5510 C.3       1 LRQ        -0.0060
     20 N5         32.2830   10.7200   10.4430 N.4       1 LRQ         0.1443
     21 N20        28.8160   11.8260   11.2960 N.pl3     1 LRQ        -0.2799
     22 C18        26.7820   11.3730   12.7030 C.ar      1 LRQ        -0.0272
     23 C17        26.2030   10.4390   13.5480 C.ar      1 LRQ        -0.0617
     24 C6         31.9840    9.2710   10.4670 C.3       1 LRQ        -0.0152
     25 F28        31.5440   12.3180   12.8250 F         1 LRQ        -0.1709
     26 C26        32.0330   14.5530   12.3690 C.ar      1 LRQ        -0.0128
     27 C25        32.1920   15.5850   11.4410 C.ar      1 LRQ        -0.0316
     28 C23        31.6570   14.0530    9.6850 C.ar      1 LRQ         0.1366
     29 F34        31.4720   13.8150    8.3680 F         1 LRQ        -0.1709
     30 C29        32.5580   16.9290   11.8950 C.3       1 LRQ        -0.0241
     31 H1         35.7096   12.3857    8.9634 H         1 LRQ         0.0262
     32 H2         35.8326   10.6942    8.3717 H         1 LRQ         0.0262
     33 H3         36.8663   11.2469    9.7328 H         1 LRQ         0.0262
     34 H4         34.1031   11.4690   12.2012 H         1 LRQ         0.0262
     35 H5         34.7288   12.8351   11.2169 H         1 LRQ         0.0262
     36 H6         35.8721   11.6644   11.9580 H         1 LRQ         0.0262
     37 H7         32.2177    8.9002    8.3638 H         1 LRQ         0.0322
     38 H8         31.0622    7.8049    9.1956 H         1 LRQ         0.0322
     39 H9         29.4093    9.5667    9.3652 H         1 LRQ         0.0253
     40 H10        29.9726    9.4805    7.6617 H         1 LRQ         0.0253
     41 H11        29.7585   11.8298    8.4851 H         1 LRQ         0.0115
     42 H12        31.4449   11.4178    8.0235 H         1 LRQ         0.0115
     43 H13        28.5944    8.0350   13.5242 H         1 LRQ         0.0672
     44 H14        26.3870    8.5338   14.5053 H         1 LRQ         0.0554
     45 H15        30.6310    7.9283   11.4870 H         1 LRQ         0.0563
     46 H16        31.6266    8.9535   12.5754 H         1 LRQ         0.0563
     47 H17        32.1186   16.1095    9.3498 H         1 LRQ         0.0563
     48 H18        33.3727   10.3772    8.6844 H         1 LRQ         0.0848
     49 H19        33.2794   12.0924    9.2095 H         1 LRQ         0.0848
     50 H20        32.5844   10.9559   11.3755 H         1 LRQ         0.1958
     51 H21        28.5815   12.7505   10.9071 H         1 LRQ         0.2201
     52 H22        26.2757   12.3039   12.4746 H         1 LRQ         0.0576
     53 H23        25.2314   10.6399   13.9847 H         1 LRQ         0.0658
     54 H24        32.9273    8.7276   10.6250 H         1 LRQ         0.0889
     55 H25        32.1784   14.7361   13.4275 H         1 LRQ         0.0563
     56 H26        32.6362   17.6005   11.0272 H         1 LRQ         0.0431
     57 H27        33.5259   16.8891   12.4161 H         1 LRQ         0.0431
     58 H28        31.7867   17.3066   12.5824 H         1 LRQ         0.0431
@<TRIPOS>BOND
     1    2    1 1  
     2    2    3 1  
     3    2   18 1  
     4   19    2 1  
     5    5    4 1  
     6    4   24 1  
     7    6    5 1  
     8    7    6 1  
     9    7    8 1  
    10    7   15 1  
    11   20    7 1  
    12    8    9 2  
    13    8   21 1  
    14    9   10 1  
    15    9   14 1  
    16   10   11 ar 
    17   13   10 ar 
    18   11   12 ar 
    19   12   23 ar 
    20   21   13 1  
    21   13   22 ar 
    22   14   24 1  
    23   15   17 ar 
    24   15   28 ar 
    25   16   27 ar 
    26   28   16 ar 
    27   17   25 1  
    28   17   26 ar 
    29   19   20 1  
    30   20   24 1  
    31   22   23 ar 
    32   26   27 ar 
    33   27   30 1  
    34   28   29 1  
    35    1   31 1  
    36    1   32 1  
    37    1   33 1  
    38    3   34 1  
    39    3   35 1  
    40    3   36 1  
    41    4   37 1  
    42    4   38 1  
    43    5   39 1  
    44    5   40 1  
    45    6   41 1  
    46    6   42 1  
    47   11   43 1  
    48   12   44 1  
    49   14   45 1  
    50   14   46 1  
    51   16   47 1  
    52   19   48 1  
    53   19   49 1  
    54   20   50 1  
    55   21   51 1  
    56   22   52 1  
    57   23   53 1  
    58   24   54 1  
    59   26   55 1  
    60   30   56 1  
    61   30   57 1  
    62   30   58 1  
@<TRIPOS>SUBSTRUCTURE
     1 LRQ         1

