### 
### Created by X-TOOL on Mon Aug  2 16:16:52 2021
### 

@<TRIPOS>MOLECULE
6st0_ligand
   21    20     1     0     0
SMALL
GAST_HUCK


@<TRIPOS>ATOM
      1 C01        -0.8090   95.5700  186.8020 C.3       1 LUQ        -0.0151
      2 C02        -2.2080   95.4900  187.3030 C.3       1 LUQ         0.0707
      3 C08        -1.3960   93.8260  185.1210 C.3       1 LUQ         0.0559
      4 C09        -0.6240   92.5470  185.4830 C.2       1 LUQ         0.2190
      5 N07        -0.6350   95.0590  185.4070 N.4       1 LUQ         0.2450
      6 N11         0.1980   92.5400  186.6040 N.am      1 LUQ        -0.2965
      7 O04        -1.8040   97.4550  188.8870 O.co2     1 LUQ        -0.4844
      8 O05        -1.7620   95.2330  189.8380 O.co2     1 LUQ        -0.4844
      9 O06        -3.8360   96.1860  189.1340 O.co2     1 LUQ        -0.4844
     10 O10        -0.6830   91.5030  184.8570 O.2       1 LUQ        -0.3914
     11 S03        -2.4180   96.1490  188.9430 S.o2      1 LUQ        -0.1866
     12 H1         -0.1672   94.9774  187.4705 H         1 LUQ         0.0829
     13 H2         -0.4916   96.6229  186.8273 H         1 LUQ         0.0829
     14 H3         -2.5143   94.4336  187.3112 H         1 LUQ         0.0521
     15 H4         -2.8559   96.0543  186.6162 H         1 LUQ         0.0521
     16 H5         -2.3301   93.8479  185.7015 H         1 LUQ         0.1062
     17 H6         -1.6322   93.8009  184.0470 H         1 LUQ         0.1062
     18 H7          0.3438   94.8693  185.2584 H         1 LUQ         0.2033
     19 H8         -0.9394   95.7753  184.7665 H         1 LUQ         0.2033
     20 H9          0.7043   91.7127  186.8476 H         1 LUQ         0.1816
     21 H10         0.2831   93.3622  187.1668 H         1 LUQ         0.1816
@<TRIPOS>BOND
     1    1    2 1  
     2    5    1 1  
     3    2   11 1  
     4    3    4 1  
     5    3    5 1  
     6    4    6 am 
     7    4   10 2  
     8   11    7 ar 
     9   11    8 ar 
    10   11    9 ar 
    11    1   12 1  
    12    1   13 1  
    13    2   14 1  
    14    2   15 1  
    15    3   16 1  
    16    3   17 1  
    17    5   18 1  
    18    5   19 1  
    19    6   20 1  
    20    6   21 1  
@<TRIPOS>SUBSTRUCTURE
     1 LUQ         1

