### 
### Created by X-TOOL on Mon Aug  2 16:16:53 2021
### 

@<TRIPOS>MOLECULE
6st3_ligand
   46    49     1     0     0
SMALL
GAST_HUCK


@<TRIPOS>ATOM
      1 C02         6.6140   22.6940   28.7260 C.2       1 LUW         0.1898
      2 C03         6.0230   23.1190   27.3870 C.2       1 LUW         0.1112
      3 C04         5.2910   24.2850   27.2600 C.2       1 LUW         0.0060
      4 C06         4.9070   23.8240   25.0500 C.2       1 LUW         0.3282
      5 C09         3.2540   25.4430   22.3240 C.2       1 LUW         0.0006
      6 C10         3.6180   24.2250   21.7560 C.2       1 LUW        -0.0408
      7 C11         4.2740   23.4920   22.7100 C.2       1 LUW         0.0810
      8 C13         6.1300   22.3150   26.2580 C.2       1 LUW         0.2251
      9 C16         7.9400   21.1360   30.1210 C.3       1 LUW         0.0584
     10 C17         9.1890   21.8630   30.5690 C.ar      1 LUW        -0.0312
     11 C18         9.7940   21.4450   31.7390 C.ar      1 LUW        -0.0658
     12 C19        10.9360   22.0860   32.1750 C.ar      1 LUW        -0.0347
     13 C20         9.7000   22.9110   29.8320 C.ar      1 LUW        -0.0658
     14 C21        10.8440   23.5520   30.2790 C.ar      1 LUW        -0.0347
     15 C22        11.4550   23.1430   31.4510 C.ar      1 LUW         0.1092
     16 C24        12.7920   23.8630   33.2490 C.ar      1 LUW         0.1144
     17 C25        13.9620   23.3720   33.7850 C.ar      1 LUW        -0.0288
     18 C26        14.1730   23.4280   35.1480 C.ar      1 LUW        -0.0698
     19 C27        13.2100   23.9790   35.9750 C.ar      1 LUW        -0.0724
     20 C28        12.0340   24.4760   35.4400 C.ar      1 LUW        -0.0698
     21 C29        11.8270   24.4230   34.0700 C.ar      1 LUW        -0.0288
     22 N05         4.7690   24.6050   26.0930 N.2       1 LUW        -0.2528
     23 N07         4.3040   24.2260   23.7960 N.pl3     1 LUW        -0.0972
     24 N08         3.6800   25.4350   23.5900 N.2       1 LUW        -0.1910
     25 N12         5.5830   22.6900   25.1110 N.am      1 LUW        -0.1619
     26 N15         7.4570   21.5380   28.8140 N.am      1 LUW        -0.2820
     27 O01         6.3590   23.2910   29.7130 O.2       1 LUW        -0.4032
     28 O14         6.8440   21.1240   26.3330 O.2       1 LUW        -0.4085
     29 O23        12.6170   23.8040   31.8570 O.3       1 LUW        -0.2622
     30 H1          5.1464   24.9363   28.1207 H         1 LUW         0.0939
     31 H2          2.7206   26.2525   21.8279 H         1 LUW         0.0689
     32 H3          3.4167   23.9102   20.7331 H         1 LUW         0.0371
     33 H4          4.6900   22.4928   22.5894 H         1 LUW         0.1037
     34 H5          7.1455   21.3286   30.8570 H         1 LUW         0.0661
     35 H6          8.1593   20.0585   30.0917 H         1 LUW         0.0661
     36 H7          9.3762   20.6225   32.3083 H         1 LUW         0.0533
     37 H8         11.4260   21.7604   33.0855 H         1 LUW         0.0536
     38 H9          9.2137   23.2284   28.9166 H         1 LUW         0.0533
     39 H10        11.2609   24.3750   29.7098 H         1 LUW         0.0536
     40 H11        14.7168   22.9418   33.1367 H         1 LUW         0.0551
     41 H12        15.0930   23.0404   35.5705 H         1 LUW         0.0590
     42 H13        13.3771   24.0216   37.0452 H         1 LUW         0.0527
     43 H14        11.2787   24.9045   36.0889 H         1 LUW         0.0590
     44 H15        10.9127   24.8186   33.6427 H         1 LUW         0.0551
     45 H16         5.6811   22.1184   24.2963 H         1 LUW         0.2618
     46 H17         7.7058   21.0216   27.9946 H         1 LUW         0.1854
@<TRIPOS>BOND
     1    1    2 1  
     2   26    1 am 
     3    1   27 2  
     4    2    3 2  
     5    2    8 1  
     6    3   22 1  
     7   22    4 2  
     8    4   23 1  
     9   25    4 am 
    10    6    5 1  
    11    5   24 2  
    12    7    6 2  
    13   23    7 1  
    14    8   25 am 
    15    8   28 2  
    16   10    9 1  
    17    9   26 1  
    18   11   10 ar 
    19   13   10 ar 
    20   12   11 ar 
    21   15   12 ar 
    22   14   13 ar 
    23   15   14 ar 
    24   29   15 1  
    25   16   17 ar 
    26   16   21 ar 
    27   16   29 1  
    28   17   18 ar 
    29   18   19 ar 
    30   19   20 ar 
    31   20   21 ar 
    32   23   24 1  
    33    3   30 1  
    34    5   31 1  
    35    6   32 1  
    36    7   33 1  
    37    9   34 1  
    38    9   35 1  
    39   11   36 1  
    40   12   37 1  
    41   13   38 1  
    42   14   39 1  
    43   17   40 1  
    44   18   41 1  
    45   19   42 1  
    46   20   43 1  
    47   21   44 1  
    48   25   45 1  
    49   26   46 1  
@<TRIPOS>SUBSTRUCTURE
     1 LUW         1

