### 
### Created by X-TOOL on Mon Aug  2 16:16:53 2021
### 

@<TRIPOS>MOLECULE
6stl_ligand
   14    13     1     0     0
SMALL
GAST_HUCK


@<TRIPOS>ATOM
      1 C1         23.9280  -23.7040  104.0210 C.3       1 TAU        -0.0186
      2 C2         25.2940  -24.0400  104.6060 C.3       1 TAU         0.0706
      3 N1         23.3910  -24.8700  103.3380 N.4       1 TAU         0.2196
      4 S          25.1900  -24.8270  106.0730 S.o2      1 TAU        -0.1866
      5 O1         26.7060  -25.0310  106.5520 O.co2     1 TAU        -0.4844
      6 O2         24.5080  -24.0290  107.0420 O.co2     1 TAU        -0.4844
      7 O3         24.5440  -26.0860  105.8830 O.co2     1 TAU        -0.4844
      8 H1         24.0299  -22.8749  103.3053 H         1 TAU         0.0828
      9 H2         23.2455  -23.4074  104.8310 H         1 TAU         0.0828
     10 H3         25.8560  -23.1050  104.7473 H         1 TAU         0.0521
     11 H4         25.8311  -24.6870  103.8969 H         1 TAU         0.0521
     12 H5         22.4873  -24.6464  102.9515 H         1 TAU         0.1995
     13 H6         23.2973  -25.6299  103.9936 H         1 TAU         0.1995
     14 H7         24.0161  -25.1420  102.5955 H         1 TAU         0.1995
@<TRIPOS>BOND
     1    1    2 1  
     2    1    3 1  
     3    2    4 1  
     4    4    5 ar 
     5    4    6 ar 
     6    4    7 ar 
     7    1    8 1  
     8    1    9 1  
     9    2   10 1  
    10    2   11 1  
    11    3   12 1  
    12    3   13 1  
    13    3   14 1  
@<TRIPOS>SUBSTRUCTURE
     1 TAU         1

