### 
### Created by X-TOOL on Mon Aug  2 16:16:53 2021
### 

@<TRIPOS>MOLECULE
6suo_ligand
   60    63     1     0     0
SMALL
GAST_HUCK


@<TRIPOS>ATOM
      1 C1         31.6380    8.9810   10.4270 C.3       1 LVH        -0.0180
      2 C2         30.7290    8.8240   11.6450 C.3       1 LVH         0.0398
      3 C3         29.5990    9.8130   11.6070 C.2       1 LVH         0.0120
      4 C7         25.8310   10.4540   13.3600 C.ar      1 LVH        -0.0615
      5 C8         26.4990    9.3020   13.7740 C.ar      1 LVH        -0.0622
      6 C9         27.7540    8.9860   13.2630 C.ar      1 LVH        -0.0506
      7 C10        28.3600    9.8360   12.3390 C.ar      1 LVH         0.0322
      8 C11        30.7570   11.3940    9.9510 C.3       1 LVH        -0.0190
      9 C12        30.1370   11.2770    8.5520 C.3       1 LVH        -0.0728
     10 C13        33.0460   10.6770    9.2310 C.3       1 LVH        -0.0061
     11 C14        34.4380   10.6510    9.8410 C.3       1 LVH         0.1454
     12 C15        35.4910   11.0000    8.8170 C.3       1 LVH        -0.0261
     13 C16        34.5290   11.5750   11.0320 C.3       1 LVH        -0.0261
     14 C19        31.8980   15.1560   10.0420 C.ar      1 LVH        -0.0078
     15 C20        32.0250   15.3660   11.4220 C.ar      1 LVH        -0.0076
     16 C21        32.4670   16.6650   11.9590 C.2       1 LVH        -0.0334
     17 C22        32.8000   17.7600   11.2760 C.2       1 LVH        -0.0162
     18 C24        31.7770   14.3180   12.3150 C.ar      1 LVH        -0.0078
     19 F2         31.1450   12.1220   12.7380 F         1 LVH        -0.1703
     20 C25        31.3740   13.0970   11.8340 C.ar      1 LVH         0.1415
     21 C23        33.3620   18.9810   11.9070 C.2       1 LVH         0.0609
     22 O1         33.6440   19.9560   11.0860 O.co2     1 LVH        -0.5599
     23 O          33.5550   19.0570   13.1200 O.co2     1 LVH        -0.5599
     24 C18        31.4730   13.9340    9.5750 C.ar      1 LVH         0.1415
     25 F1         31.3600   13.7740    8.2360 F         1 LVH        -0.1703
     26 C17        31.1850   12.7890   10.4150 C.ar      1 LVH         0.0167
     27 N1         31.9000   10.4200   10.1170 N.4       1 LVH         0.1427
     28 F          34.7280    9.3860   10.2960 F         1 LVH        -0.2369
     29 C          31.1480    8.1420    9.2480 C.3       1 LVH        -0.0185
     30 C4         29.6250   10.9440   10.8360 C.2       1 LVH         0.0480
     31 N          28.4780   11.6820   11.0470 N.pl3     1 LVH        -0.2795
     32 C5         27.6810   11.0100   11.9560 C.ar      1 LVH         0.0839
     33 C6         26.4110   11.3210   12.4420 C.ar      1 LVH        -0.0270
     34 H1         32.6122    8.5557   10.7101 H         1 LVH         0.0886
     35 H2         31.3200    8.9886   12.5580 H         1 LVH         0.0565
     36 H3         30.3145    7.8051   11.6551 H         1 LVH         0.0565
     37 H4         24.8478   10.6757   13.7590 H         1 LVH         0.0660
     38 H5         26.0356    8.6457   14.5017 H         1 LVH         0.0554
     39 H6         28.2590    8.0816   13.5824 H         1 LVH         0.0673
     40 H7         29.3090   11.9949    8.4567 H         1 LVH         0.0077
     41 H8         29.7557   10.2559    8.4041 H         1 LVH         0.0077
     42 H9         30.9018   11.4965    7.7925 H         1 LVH         0.0077
     43 H10        33.0225    9.9166    8.4365 H         1 LVH         0.0848
     44 H11        32.9009   11.6737    8.7890 H         1 LVH         0.0848
     45 H12        36.4844   10.9724    9.2886 H         1 LVH         0.0262
     46 H13        35.2997   12.0093    8.4237 H         1 LVH         0.0262
     47 H14        35.4562   10.2725    7.9927 H         1 LVH         0.0262
     48 H15        33.7550   11.3050   11.7655 H         1 LVH         0.0262
     49 H16        34.3761   12.6134   10.7030 H         1 LVH         0.0262
     50 H17        35.5222   11.4796   11.4951 H         1 LVH         0.0262
     51 H18        32.1336   15.9529    9.3460 H         1 LVH         0.0628
     52 H19        32.5290   16.7392   13.0437 H         1 LVH         0.0728
     53 H20        32.6519   17.7592   10.1971 H         1 LVH         0.0747
     54 H21        31.9024   14.4693   13.3810 H         1 LVH         0.0628
     55 H22        32.2666   10.7254   11.0049 H         1 LVH         0.1958
     56 H23        30.9857    7.1053    9.5781 H         1 LVH         0.0287
     57 H24        31.9025    8.1581    8.4478 H         1 LVH         0.0287
     58 H25        30.2029    8.5584    8.8693 H         1 LVH         0.0287
     59 H26        28.2530   12.5831   10.6017 H         1 LVH         0.2203
     60 H27        25.8914   12.2136   12.1129 H         1 LVH         0.0577
@<TRIPOS>BOND
     1    1    2 1  
     2   27    1 1  
     3    1   29 1  
     4    3    2 1  
     5    3    7 1  
     6   30    3 2  
     7    5    4 ar 
     8    4   33 ar 
     9    6    5 ar 
    10    7    6 ar 
    11    7   32 ar 
    12    8    9 1  
    13   26    8 1  
    14    8   27 1  
    15    8   30 1  
    16   10   11 1  
    17   27   10 1  
    18   11   12 1  
    19   11   13 1  
    20   11   28 1  
    21   15   14 ar 
    22   14   24 ar 
    23   15   16 1  
    24   18   15 ar 
    25   16   17 2  
    26   17   21 1  
    27   20   18 ar 
    28   20   19 1  
    29   20   26 ar 
    30   21   22 ar 
    31   21   23 ar 
    32   24   25 1  
    33   24   26 ar 
    34   30   31 1  
    35   31   32 1  
    36   32   33 ar 
    37    1   34 1  
    38    2   35 1  
    39    2   36 1  
    40    4   37 1  
    41    5   38 1  
    42    6   39 1  
    43    9   40 1  
    44    9   41 1  
    45    9   42 1  
    46   10   43 1  
    47   10   44 1  
    48   12   45 1  
    49   12   46 1  
    50   12   47 1  
    51   13   48 1  
    52   13   49 1  
    53   13   50 1  
    54   14   51 1  
    55   16   52 1  
    56   17   53 1  
    57   18   54 1  
    58   27   55 1  
    59   29   56 1  
    60   29   57 1  
    61   29   58 1  
    62   31   59 1  
    63   33   60 1  
@<TRIPOS>SUBSTRUCTURE
     1 LVH         1

