### 
### Created by X-TOOL on Mon Aug  2 16:16:53 2021
### 

@<TRIPOS>MOLECULE
6sze_ligand
   25    26     1     0     0
SMALL
GAST_HUCK


@<TRIPOS>ATOM
      1 N1        -40.4910   37.8770   -4.5070 N.am      1 M2B        -0.3081
      2 C2        -40.3880   36.7070   -3.8800 C.2       1 M2B         0.1687
      3 O3        -40.6510   35.6080   -4.3610 O.2       1 M2B        -0.4107
      4 C4        -39.8980   36.7900   -2.4830 C.2       1 M2B         0.0806
      5 C5        -39.4530   37.8880   -1.7060 C.2       1 M2B        -0.0038
      6 N6        -39.0910   37.5090   -0.4720 N.2       1 M2B        -0.2216
      7 N7        -39.3010   36.1410   -0.4470 N.pl3     1 M2B        -0.1370
      8 C8        -39.7900   35.6870   -1.6390 C.2       1 M2B         0.1956
      9 N9        -40.0920   34.3820   -1.8810 N.pl3     1 M2B        -0.2997
     10 C10       -38.9230   35.3760    0.7080 C.ar      1 M2B         0.1115
     11 C11       -38.1980   34.2090    0.5560 C.ar      1 M2B        -0.0267
     12 C12       -37.8630   33.4500    1.6600 C.ar      1 M2B        -0.0665
     13 C13       -38.2530   33.8710    2.9140 C.ar      1 M2B        -0.0693
     14 C14       -38.9710   35.0460    3.0580 C.ar      1 M2B        -0.0665
     15 C15       -39.3160   35.8040    1.9550 C.ar      1 M2B        -0.0267
     16 H1        -40.2526   38.7228   -4.0297 H         1 M2B         0.1791
     17 H2        -40.8068   37.9100   -5.4553 H         1 M2B         0.1791
     18 H3        -39.4102   38.9145   -2.0671 H         1 M2B         0.0650
     19 H4        -40.4581   34.1003   -2.8016 H         1 M2B         0.1831
     20 H5        -39.9544   33.6762   -1.1435 H         1 M2B         0.1831
     21 H6        -37.8914   33.8885   -0.4331 H         1 M2B         0.0580
     22 H7        -37.2988   32.5319    1.5420 H         1 M2B         0.0598
     23 H8        -37.9973   33.2818    3.7872 H         1 M2B         0.0553
     24 H9        -39.2661   35.3754    4.0477 H         1 M2B         0.0598
     25 H10       -39.8858   36.7189    2.0703 H         1 M2B         0.0580
@<TRIPOS>BOND
     1    1    2 am 
     2    2    3 2  
     3    2    4 1  
     4    4    5 1  
     5    4    8 2  
     6    5    6 2  
     7    6    7 1  
     8    7    8 1  
     9    7   10 1  
    10    8    9 1  
    11   10   11 ar 
    12   10   15 ar 
    13   11   12 ar 
    14   12   13 ar 
    15   13   14 ar 
    16   14   15 ar 
    17    1   16 1  
    18    1   17 1  
    19    5   18 1  
    20    9   19 1  
    21    9   20 1  
    22   11   21 1  
    23   12   22 1  
    24   13   23 1  
    25   14   24 1  
    26   15   25 1  
@<TRIPOS>SUBSTRUCTURE
     1 M2B         1

