### 
### Created by X-TOOL on Mon Aug  2 16:16:53 2021
### 

@<TRIPOS>MOLECULE
6szj_ligand
   41    42     1     0     0
SMALL
GAST_HUCK


@<TRIPOS>ATOM
      1 C1        -37.1220   32.9890   -0.2450 C.3       1 M5W         0.0593
      2 O2        -37.7600   33.3940    0.9590 O.3       1 M5W        -0.3215
      3 C3        -38.5060   34.5640    0.9970 C.ar      1 M5W         0.0905
      4 C4        -38.9700   34.9310    2.2370 C.ar      1 M5W        -0.0334
      5 C5        -39.7270   36.0720    2.3860 C.ar      1 M5W        -0.0702
      6 C6        -40.0210   36.8590    1.2910 C.ar      1 M5W        -0.0656
      7 C7        -39.5660   36.4960    0.0420 C.ar      1 M5W        -0.0251
      8 C8        -38.8070   35.3510   -0.0990 C.ar      1 M5W        -0.0266
      9 C9        -39.8720   37.3420   -1.1400 C.2       1 M5W         0.0351
     10 N10       -39.6580   38.6590   -1.0810 N.2       1 M5W        -0.2254
     11 N11       -40.0250   39.1630   -2.3340 N.pl3     1 M5W        -0.1760
     12 C12       -40.4460   38.1650   -3.1470 C.2       1 M5W         0.1817
     13 N13       -40.8650   38.3540   -4.4260 N.pl3     1 M5W        -0.3015
     14 C14       -40.3700   36.9740   -2.4210 C.2       1 M5W         0.0846
     15 C15       -40.7720   35.6800   -3.0090 C.2       1 M5W         0.1684
     16 N16       -40.9840   34.6320   -2.2160 N.am      1 M5W        -0.3083
     17 O17       -40.9340   35.5870   -4.2180 O.2       1 M5W        -0.4113
     18 C18       -39.8850   40.6610   -2.5300 C.3       1 M5W         0.0849
     19 C19       -41.1670   41.2830   -3.0320 C.3       1 M5W        -0.0307
     20 C20       -38.8220   40.9430   -3.5660 C.3       1 M5W        -0.0307
     21 C21       -39.5620   41.3620   -1.2190 C.3       1 M5W        -0.0307
     22 H1        -36.5839   32.0448   -0.0751 H         1 M5W         0.0577
     23 H2        -36.4096   33.7651   -0.5615 H         1 M5W         0.0577
     24 H3        -37.8787   32.8436   -1.0300 H         1 M5W         0.0577
     25 H4        -38.7393   34.3198    3.1020 H         1 M5W         0.0541
     26 H5        -40.0932   36.3529    3.3669 H         1 M5W         0.0589
     27 H6        -40.6090   37.7614    1.4133 H         1 M5W         0.0527
     28 H7        -38.4433   35.0662   -1.0797 H         1 M5W         0.0539
     29 H8        -41.1729   37.5499   -4.9912 H         1 M5W         0.1827
     30 H9        -40.8746   39.3014   -4.8301 H         1 M5W         0.1827
     31 H10       -41.2563   33.7540   -2.6097 H         1 M5W         0.1790
     32 H11       -40.8710   34.7227   -1.2266 H         1 M5W         0.1790
     33 H12       -41.0233   42.3660   -3.1604 H         1 M5W         0.0263
     34 H13       -41.9714   41.1037   -2.3035 H         1 M5W         0.0263
     35 H14       -41.4397   40.8323   -3.9977 H         1 M5W         0.0263
     36 H15       -38.7242   42.0299   -3.7045 H         1 M5W         0.0263
     37 H16       -39.1069   40.4759   -4.5203 H         1 M5W         0.0263
     38 H17       -37.8609   40.5286   -3.2275 H         1 M5W         0.0263
     39 H18       -39.4673   42.4436   -1.3952 H         1 M5W         0.0263
     40 H19       -38.6150   40.9716   -0.8180 H         1 M5W         0.0263
     41 H20       -40.3701   41.1778   -0.4958 H         1 M5W         0.0263
@<TRIPOS>BOND
     1    1    2 1  
     2    2    3 1  
     3    3    4 ar 
     4    3    8 ar 
     5    4    5 ar 
     6    5    6 ar 
     7    6    7 ar 
     8    7    8 ar 
     9    7    9 1  
    10    9   10 2  
    11    9   14 1  
    12   10   11 1  
    13   11   12 1  
    14   11   18 1  
    15   12   13 1  
    16   12   14 2  
    17   14   15 1  
    18   15   16 am 
    19   15   17 2  
    20   18   19 1  
    21   18   20 1  
    22   18   21 1  
    23    1   22 1  
    24    1   23 1  
    25    1   24 1  
    26    4   25 1  
    27    5   26 1  
    28    6   27 1  
    29    8   28 1  
    30   13   29 1  
    31   13   30 1  
    32   16   31 1  
    33   16   32 1  
    34   19   33 1  
    35   19   34 1  
    36   19   35 1  
    37   20   36 1  
    38   20   37 1  
    39   20   38 1  
    40   21   39 1  
    41   21   40 1  
    42   21   41 1  
@<TRIPOS>SUBSTRUCTURE
     1 M5W         1

