### 
### Created by X-TOOL on Mon Aug  2 16:16:54 2021
### 

@<TRIPOS>MOLECULE
6szp_ligand
   39    38     1     0     0
SMALL
GAST_HUCK


@<TRIPOS>ATOM
      1 C01        -4.4810   20.0600    4.2300 C.3       1 M3B        -0.0221
      2 C02        -5.1680   18.9280    3.4450 C.3       1 M3B        -0.0074
      3 C03        -6.6450   18.7750    3.8140 C.3       1 M3B        -0.0078
      4 C04        -7.2780   17.6590    2.9750 C.3       1 M3B        -0.0352
      5 C07        -3.5240   21.8850    2.8970 C.3       1 M3B         0.0097
      6 C11        -2.0880   21.1180    1.0240 C.3       1 M3B         0.0016
      7 C12        -0.8800   21.9770    1.4230 C.3       1 M3B         0.0875
      8 C14        -0.3120   23.9710    2.5110 C.3       1 M3B         0.0367
      9 N05        -6.9450   16.3470    3.5150 N.4       1 M3B         0.2185
     10 N06        -4.6860   21.3760    3.6340 N.4       1 M3B         0.2982
     11 N08        -3.9500   22.7660    2.0900 N.4       1 M3B         0.2910
     12 N10        -2.9620   20.7760    2.1490 N.4       1 M3B         0.2998
     13 O13        -1.3230   23.2250    1.8780 O.3       1 M3B        -0.3777
     14 H1         -3.4006   19.8561    4.2651 H         1 M3B         0.0818
     15 H2         -4.8853   20.0722    5.2529 H         1 M3B         0.0818
     16 H3         -4.6499   17.9824    3.6625 H         1 M3B         0.0319
     17 H4         -5.0936   19.1481    2.3698 H         1 M3B         0.0319
     18 H5         -7.1701   19.7215    3.6180 H         1 M3B         0.0319
     19 H6         -6.7303   18.5224    4.8812 H         1 M3B         0.0319
     20 H7         -6.9041   17.7286    1.9429 H         1 M3B         0.0813
     21 H8         -8.3710   17.7824    2.9781 H         1 M3B         0.0813
     22 H9         -2.7755   22.3117    3.5809 H         1 M3B         0.2164
     23 H10        -1.7178   20.1845    0.5751 H         1 M3B         0.0840
     24 H11        -2.6791   21.6731    0.2808 H         1 M3B         0.0840
     25 H12        -0.2253   22.1166    0.5502 H         1 M3B         0.0613
     26 H13        -0.3203   21.4725    2.2243 H         1 M3B         0.0613
     27 H14        -0.7221   24.9360    2.8437 H         1 M3B         0.0524
     28 H15         0.5115   24.1470    1.8033 H         1 M3B         0.0524
     29 H16         0.0650   23.4134    3.3810 H         1 M3B         0.0524
     30 H17        -7.3719   15.6318    2.9473 H         1 M3B         0.1994
     31 H18        -7.2886   16.2755    4.4599 H         1 M3B         0.1994
     32 H19        -5.9443   16.2262    3.5112 H         1 M3B         0.1994
     33 H20        -4.9037   22.0276    4.3716 H         1 M3B         0.2140
     34 H21        -5.4647   21.3175    2.9967 H         1 M3B         0.2140
     35 H22        -3.1768   23.1409    1.5631 H         1 M3B         0.2117
     36 H23        -4.3954   23.5079    2.6069 H         1 M3B         0.2117
     37 H24        -4.6162   22.3493    1.4587 H         1 M3B         0.2117
     38 H25        -3.7292   20.2324    1.7857 H         1 M3B         0.2141
     39 H26        -2.4266   20.2138    2.7919 H         1 M3B         0.2141
@<TRIPOS>BOND
     1    1    2 1  
     2   10    1 1  
     3    2    3 1  
     4    3    4 1  
     5    4    9 1  
     6    5   10 1  
     7    5   11 1  
     8   12    5 1  
     9    6    7 1  
    10    6   12 1  
    11    7   13 1  
    12   13    8 1  
    13    1   14 1  
    14    1   15 1  
    15    2   16 1  
    16    2   17 1  
    17    3   18 1  
    18    3   19 1  
    19    4   20 1  
    20    4   21 1  
    21    5   22 1  
    22    6   23 1  
    23    6   24 1  
    24    7   25 1  
    25    7   26 1  
    26    8   27 1  
    27    8   28 1  
    28    8   29 1  
    29    9   30 1  
    30    9   31 1  
    31    9   32 1  
    32   10   33 1  
    33   10   34 1  
    34   11   35 1  
    35   11   36 1  
    36   11   37 1  
    37   12   38 1  
    38   12   39 1  
@<TRIPOS>SUBSTRUCTURE
     1 M3B         1

