### 
### Created by X-TOOL on Mon Aug  2 16:16:54 2021
### 

@<TRIPOS>MOLECULE
6t1i_ligand
   51    53     1     0     0
SMALL
GAST_HUCK


@<TRIPOS>ATOM
      1 C2          4.4010   14.6090   11.6620 C.ar      1 M7W        -0.0106
      2 C4          2.2410   14.8110   12.6710 C.ar      1 M7W        -0.0050
      3 C5          0.8000   14.3820   12.7840 C.3       1 M7W         0.0658
      4 C6         -1.1770   14.9500   14.0260 C.2       1 M7W         0.2618
      5 O2         -5.7570   15.7130   23.5080 O.2       1 M7W        -0.3855
      6 C1          4.7610   15.7560   12.3330 C.ar      1 M7W         0.1572
      7 C3          3.1190   14.1440   11.8470 C.ar      1 M7W        -0.0470
      8 O1         -1.8720   14.8790   13.0200 O.2       1 M7W        -0.4005
      9 C13        -4.7870   16.3560   23.1170 C.2       1 M7W         0.1200
     10 C14        -4.0400   17.2450   24.0630 C.3       1 M7W         0.0087
     11 C12        -4.3870   16.3120   21.6780 C.ar      1 M7W         0.0186
     12 C11        -3.4280   17.1850   21.1780 C.ar      1 M7W        -0.0545
     13 C10        -2.9800   17.0750   19.8770 C.ar      1 M7W        -0.0377
     14 C16        -4.8930   15.3250   20.8360 C.ar      1 M7W        -0.0545
     15 C15        -4.4260   15.1900   19.5400 C.ar      1 M7W        -0.0377
     16 C9         -3.4560   16.0620   19.0410 C.ar      1 M7W         0.0462
     17 N2         -2.9720   15.9290   17.7460 N.pl3     1 M7W        -0.3019
     18 C8         -1.6110   16.3750   17.4230 C.3       1 M7W         0.0482
     19 C7         -0.9290   15.4050   16.4670 C.3       1 M7W         0.0541
     20 C18        -3.4880   14.8970   16.8440 C.3       1 M7W         0.0482
     21 C17        -3.1640   15.2400   15.4180 C.3       1 M7W         0.0541
     22 N1         -1.7070   15.2760   15.2270 N.am      1 M7W        -0.2556
     23 N           0.1610   14.7420   14.0360 N.am      1 M7W        -0.2621
     24 C19         2.7190   15.9370   13.3160 C.ar      1 M7W         0.0026
     25 N3          3.9620   16.4210   13.1590 N.ar      1 M7W        -0.2818
     26 O           6.0030   16.2110   12.0810 O.3       1 M7W        -0.3066
     27 C           6.4290   17.3820   12.7650 C.3       1 M7W         0.0615
     28 H1          5.0996   14.0926   11.0137 H         1 M7W         0.0622
     29 H2          0.7581   13.2878   12.6792 H         1 M7W         0.0674
     30 H3          0.2367   14.8508   11.9637 H         1 M7W         0.0674
     31 H4          2.7971   13.2426   11.3382 H         1 M7W         0.0651
     32 H5         -3.2102   17.7324   23.5302 H         1 M7W         0.0447
     33 H6         -3.6400   16.6438   24.8928 H         1 M7W         0.0447
     34 H7         -4.7210   18.0118   24.4608 H         1 M7W         0.0447
     35 H8         -3.0266   17.9624   21.8181 H         1 M7W         0.0639
     36 H9         -2.2506   17.7826   19.4998 H         1 M7W         0.0531
     37 H10        -5.6624   14.6539   21.2002 H         1 M7W         0.0639
     38 H11        -4.8163   14.4011   18.9073 H         1 M7W         0.0531
     39 H12        -1.0236   16.4376   18.3509 H         1 M7W         0.0536
     40 H13        -1.6604   17.3681   16.9526 H         1 M7W         0.0536
     41 H14        -0.8475   14.4191   16.9479 H         1 M7W         0.0539
     42 H15         0.0767   15.7800   16.2265 H         1 M7W         0.0539
     43 H16        -4.5794   14.8259   16.9609 H         1 M7W         0.0536
     44 H17        -3.0283   13.9305   17.0979 H         1 M7W         0.0536
     45 H18        -3.5874   16.2258   15.1754 H         1 M7W         0.0539
     46 H19        -3.5997   14.4800   14.7527 H         1 M7W         0.0539
     47 H20         0.6914   14.8335   14.8788 H         1 M7W         0.1871
     48 H21         2.0499   16.4608   13.9891 H         1 M7W         0.0725
     49 H22         7.4561   17.6314   12.4603 H         1 M7W         0.0580
     50 H23         6.4016   17.2033   13.8500 H         1 M7W         0.0580
     51 H24         5.7590   18.2175   12.5140 H         1 M7W         0.0580
@<TRIPOS>BOND
     1    1    6 ar 
     2    7    1 ar 
     3    3    2 1  
     4    2    7 ar 
     5    2   24 ar 
     6   23    3 1  
     7    4    8 2  
     8   22    4 am 
     9    4   23 am 
    10    9    5 2  
    11    6   25 ar 
    12    6   26 1  
    13    9   10 1  
    14   11    9 1  
    15   12   11 ar 
    16   14   11 ar 
    17   13   12 ar 
    18   16   13 ar 
    19   15   14 ar 
    20   16   15 ar 
    21   17   16 1  
    22   18   17 1  
    23   17   20 1  
    24   19   18 1  
    25   19   22 1  
    26   20   21 1  
    27   21   22 1  
    28   24   25 ar 
    29   26   27 1  
    30    1   28 1  
    31    3   29 1  
    32    3   30 1  
    33    7   31 1  
    34   10   32 1  
    35   10   33 1  
    36   10   34 1  
    37   12   35 1  
    38   13   36 1  
    39   14   37 1  
    40   15   38 1  
    41   18   39 1  
    42   18   40 1  
    43   19   41 1  
    44   19   42 1  
    45   20   43 1  
    46   20   44 1  
    47   21   45 1  
    48   21   46 1  
    49   23   47 1  
    50   24   48 1  
    51   27   49 1  
    52   27   50 1  
    53   27   51 1  
@<TRIPOS>SUBSTRUCTURE
     1 M7W         1

