### 
### Created by X-TOOL on Mon Aug  2 16:16:54 2021
### 

@<TRIPOS>MOLECULE
6t1j_ligand
   58    61     1     0     0
SMALL
GAST_HUCK


@<TRIPOS>ATOM
      1 O1         -2.5120   17.0900   19.6910 O.2       1 M7T        -0.3910
      2 C15        -3.0740   16.2680   18.9770 C.2       1 M7T         0.2099
      3 C16        -4.1970   15.4910   19.5640 C.2       1 M7T         0.0998
      4 S          -4.4230   15.5890   21.2580 S.3       1 M7T        -0.0259
      5 C19        -5.7350   14.4910   21.2110 C.2       1 M7T         0.0010
      6 C18        -6.0170   14.0540   19.9680 C.2       1 M7T        -0.0664
      7 C17        -5.1650   14.6030   18.9900 C.2       1 M7T        -0.0550
      8 N3         -2.6270   15.9720   17.7370 N.am      1 M7T        -0.2702
      9 C14        -3.2830   15.0540   16.7970 C.3       1 M7T         0.0531
     10 C13        -2.8290   15.3350   15.3770 C.3       1 M7T         0.0545
     11 C21        -1.3420   16.4660   17.2350 C.3       1 M7T         0.0531
     12 C20        -0.6410   15.3840   16.4570 C.3       1 M7T         0.0545
     13 N2         -1.3950   15.0660   15.2390 N.am      1 M7T        -0.2555
     14 C          -0.8300   15.0080   14.0020 C.2       1 M7T         0.2617
     15 O          -1.5070   15.0380   12.9810 O.2       1 M7T        -0.4005
     16 N           0.5040   14.9030   14.0000 N.am      1 M7T        -0.2627
     17 C1          1.1630   14.2230   12.9000 C.3       1 M7T         0.0618
     18 C2          2.5830   14.6800   12.6780 C.ar      1 M7T        -0.0279
     19 C12         3.4750   13.8680   11.9990 C.ar      1 M7T        -0.0647
     20 C11         4.7200   14.3330   11.6280 C.ar      1 M7T        -0.0617
     21 C5          5.1130   15.6280   11.9190 C.ar      1 M7T        -0.0053
     22 C4          4.2470   16.4240   12.6570 C.ar      1 M7T        -0.0617
     23 C3          3.0000   15.9570   13.0310 C.ar      1 M7T        -0.0647
     24 C6          6.3640   16.1990   11.2930 C.3       1 M7T        -0.0011
     25 N1          6.3860   16.0320    9.8290 N.4       1 M7T         0.2463
     26 C10         7.6950   16.3220    9.2350 C.3       1 M7T        -0.0304
     27 C9          7.4000   16.4850    7.7840 C.3       1 M7T        -0.0077
     28 C8          6.1260   17.2010    7.7660 C.3       1 M7T        -0.0077
     29 C7          5.4650   16.9440    9.1410 C.3       1 M7T        -0.0304
     30 H1         -6.2862   14.1772   22.0962 H         1 M7T         0.0801
     31 H2         -6.8181   13.3513   19.7435 H         1 M7T         0.0437
     32 H3         -5.2333   14.3799   17.9263 H         1 M7T         0.0515
     33 H4         -4.3730   15.1872   16.8617 H         1 M7T         0.0540
     34 H5         -3.0238   14.0183   17.0618 H         1 M7T         0.0540
     35 H6         -3.0252   16.3900   15.1353 H         1 M7T         0.0539
     36 H7         -3.3876   14.6898   14.6830 H         1 M7T         0.0539
     37 H8         -0.7121   16.7701   18.0840 H         1 M7T         0.0540
     38 H9         -1.5160   17.3316   16.5789 H         1 M7T         0.0540
     39 H10        -0.5611   14.4815   17.0808 H         1 M7T         0.0539
     40 H11         0.3662   15.7294   16.1810 H         1 M7T         0.0539
     41 H12         1.0418   15.2894   14.7493 H         1 M7T         0.1870
     42 H13         0.5889   14.4097   11.9805 H         1 M7T         0.0667
     43 H14         1.1733   13.1439   13.1131 H         1 M7T         0.0667
     44 H15         3.1910   12.8508   11.7549 H         1 M7T         0.0540
     45 H16         5.4006   13.6743   11.1007 H         1 M7T         0.0542
     46 H17         4.5521   17.4239   12.9436 H         1 M7T         0.0542
     47 H18         2.3399   16.5956   13.6068 H         1 M7T         0.0540
     48 H19         7.2385   15.6863   11.7202 H         1 M7T         0.0967
     49 H20         6.4178   17.2725   11.5269 H         1 M7T         0.0967
     50 H21         6.1299   15.0787    9.6247 H         1 M7T         0.2047
     51 H22         8.3938   15.4890    9.4014 H         1 M7T         0.0814
     52 H23         8.1194   17.2460    9.6545 H         1 M7T         0.0814
     53 H24         7.3065   15.5063    7.2907 H         1 M7T         0.0319
     54 H25         8.1866   17.0722    7.2876 H         1 M7T         0.0319
     55 H26         5.4853   16.8185    6.9578 H         1 M7T         0.0319
     56 H27         6.2962   18.2780    7.6204 H         1 M7T         0.0319
     57 H28         5.3577   17.8840    9.7021 H         1 M7T         0.0814
     58 H29         4.4770   16.4769    9.0158 H         1 M7T         0.0814
@<TRIPOS>BOND
     1    1    2 2  
     2    2    3 1  
     3    2    8 am 
     4    3    4 1  
     5    3    7 2  
     6    4    5 1  
     7    5    6 2  
     8    6    7 1  
     9    8    9 1  
    10    8   11 1  
    11    9   10 1  
    12   10   13 1  
    13   11   12 1  
    14   12   13 1  
    15   13   14 am 
    16   14   15 2  
    17   14   16 am 
    18   16   17 1  
    19   17   18 1  
    20   18   19 ar 
    21   18   23 ar 
    22   19   20 ar 
    23   20   21 ar 
    24   21   22 ar 
    25   21   24 1  
    26   22   23 ar 
    27   24   25 1  
    28   25   26 1  
    29   25   29 1  
    30   26   27 1  
    31   27   28 1  
    32   28   29 1  
    33    5   30 1  
    34    6   31 1  
    35    7   32 1  
    36    9   33 1  
    37    9   34 1  
    38   10   35 1  
    39   10   36 1  
    40   11   37 1  
    41   11   38 1  
    42   12   39 1  
    43   12   40 1  
    44   16   41 1  
    45   17   42 1  
    46   17   43 1  
    47   19   44 1  
    48   20   45 1  
    49   22   46 1  
    50   23   47 1  
    51   24   48 1  
    52   24   49 1  
    53   25   50 1  
    54   26   51 1  
    55   26   52 1  
    56   27   53 1  
    57   27   54 1  
    58   28   55 1  
    59   28   56 1  
    60   29   57 1  
    61   29   58 1  
@<TRIPOS>SUBSTRUCTURE
     1 M7T         1

