### 
### Created by X-TOOL on Mon Aug  2 16:16:54 2021
### 

@<TRIPOS>MOLECULE
6t1l_ligand
   59    61     1     0     0
SMALL
GAST_HUCK


@<TRIPOS>ATOM
      1 C7          3.2110   15.8780   13.1320 C.ar      1 M7N        -0.0647
      2 C6          4.4780   16.2750   12.7340 C.ar      1 M7N        -0.0617
      3 C5          5.2240   15.5020   11.8520 C.ar      1 M7N        -0.0053
      4 C4          6.6430   15.8860   11.4900 C.3       1 M7N        -0.0011
      5 C3          6.4300   17.3160    7.9660 C.3       1 M7N        -0.0244
      6 C2          5.9950   16.9150    9.3650 C.3       1 M7N        -0.0335
      7 C1          7.1300   14.6130    9.4250 C.3       1 M7N        -0.0335
      8 C8          2.6490   14.7020   12.6510 C.ar      1 M7N        -0.0279
      9 C9          1.2240   14.3130   12.9600 C.3       1 M7N         0.0618
     10 C10        -0.6890   15.1700   14.1910 C.2       1 M7N         0.2618
     11 C11        -2.6170   14.9890   15.6850 C.3       1 M7N         0.0549
     12 N1          0.6430   14.9650   14.1240 N.am      1 M7N        -0.2627
     13 C12        -2.8600   14.7530   17.1810 C.3       1 M7N         0.0540
     14 C13        -0.7810   16.4760   16.2630 C.3       1 M7N         0.0549
     15 C14        -1.0230   16.1840   17.7260 C.3       1 M7N         0.0540
     16 N2         -1.2090   15.3370   15.4430 N.am      1 M7N        -0.2554
     17 C15        -3.0400   16.2370   19.1640 C.ar      1 M7N         0.1958
     18 C16        -4.5710   15.7440   20.7720 C.ar      1 M7N         0.0145
     19 N3         -2.4440   15.9210   17.9640 N.pl3     1 M7N        -0.2710
     20 C17        -4.2960   16.9180   21.4300 C.ar      1 M7N        -0.0228
     21 C18        -3.3430   17.7240   20.8600 C.ar      1 M7N         0.0145
     22 C19         3.4020   13.9260   11.7840 C.ar      1 M7N        -0.0647
     23 C20         4.6670   14.3190   11.3900 C.ar      1 M7N        -0.0617
     24 N4         -3.9650   15.3700   19.6360 N.ar      1 M7N        -0.2527
     25 O          -1.4010   15.1830   13.1940 O.2       1 M7N        -0.4005
     26 N5         -2.6910   17.4160   19.7290 N.ar      1 M7N        -0.2527
     27 N           6.9170   15.9740   10.0390 N.4       1 M7N         0.2459
     28 C           6.1200   14.2060    8.3550 C.3       1 M7N        -0.0244
     29 H1          2.6514   16.4930   13.8275 H         1 M7N         0.0540
     30 H2          4.8927   17.2009   13.1158 H         1 M7N         0.0542
     31 H3          7.3202   15.1333   11.9199 H         1 M7N         0.0967
     32 H4          6.8552   16.8683   11.9373 H         1 M7N         0.0967
     33 H5          5.6938   18.0128    7.5387 H         1 M7N         0.0281
     34 H6          6.4975   16.4197    7.3319 H         1 M7N         0.0281
     35 H7          7.4136   17.8060    8.0142 H         1 M7N         0.0281
     36 H8          5.0057   16.4390    9.2959 H         1 M7N         0.0812
     37 H9          5.9219   17.8254    9.9781 H         1 M7N         0.0812
     38 H10         7.0866   13.8671   10.2323 H         1 M7N         0.0812
     39 H11         8.1304   14.6009    8.9679 H         1 M7N         0.0812
     40 H12         1.1968   13.2265   13.1295 H         1 M7N         0.0667
     41 H13         0.6055   14.5633   12.0855 H         1 M7N         0.0667
     42 H14        -3.2585   15.8129   15.3391 H         1 M7N         0.0540
     43 H15        -2.8647   14.0730   15.1286 H         1 M7N         0.0540
     44 H16         1.2320   15.2617   14.8757 H         1 M7N         0.1870
     45 H17        -2.2822   13.8755   17.5067 H         1 M7N         0.0546
     46 H18        -3.9315   14.5692   17.3483 H         1 M7N         0.0546
     47 H19         0.2917   16.6579   16.1011 H         1 M7N         0.0540
     48 H20        -1.3526   17.3693   15.9711 H         1 M7N         0.0540
     49 H21        -0.7091   17.0510   18.3258 H         1 M7N         0.0546
     50 H22        -0.4363   15.3018   18.0218 H         1 M7N         0.0546
     51 H23        -5.3194   15.0834   21.1946 H         1 M7N         0.0900
     52 H24        -4.8033   17.1923   22.3479 H         1 M7N         0.0665
     53 H25        -3.1040   18.6607   21.3504 H         1 M7N         0.0900
     54 H26         2.9919   12.9954   11.4087 H         1 M7N         0.0540
     55 H27         5.2325   13.6929   10.7094 H         1 M7N         0.0542
     56 H28         7.8183   16.4191    9.9643 H         1 M7N         0.2047
     57 H29         6.3690   13.2029    7.9784 H         1 M7N         0.0281
     58 H30         6.1536   14.9278    7.5256 H         1 M7N         0.0281
     59 H31         5.1097   14.1940    8.7900 H         1 M7N         0.0281
@<TRIPOS>BOND
     1    1    2 ar 
     2    8    1 ar 
     3    2    3 ar 
     4    3    4 1  
     5    3   23 ar 
     6    4   27 1  
     7    6    5 1  
     8   27    6 1  
     9   27    7 1  
    10    7   28 1  
    11    9    8 1  
    12    8   22 ar 
    13   12    9 1  
    14   10   12 am 
    15   16   10 am 
    16   10   25 2  
    17   13   11 1  
    18   11   16 1  
    19   19   13 1  
    20   15   14 1  
    21   14   16 1  
    22   19   15 1  
    23   17   19 1  
    24   24   17 ar 
    25   17   26 ar 
    26   18   20 ar 
    27   18   24 ar 
    28   20   21 ar 
    29   21   26 ar 
    30   22   23 ar 
    31    1   29 1  
    32    2   30 1  
    33    4   31 1  
    34    4   32 1  
    35    5   33 1  
    36    5   34 1  
    37    5   35 1  
    38    6   36 1  
    39    6   37 1  
    40    7   38 1  
    41    7   39 1  
    42    9   40 1  
    43    9   41 1  
    44   11   42 1  
    45   11   43 1  
    46   12   44 1  
    47   13   45 1  
    48   13   46 1  
    49   14   47 1  
    50   14   48 1  
    51   15   49 1  
    52   15   50 1  
    53   18   51 1  
    54   20   52 1  
    55   21   53 1  
    56   22   54 1  
    57   23   55 1  
    58   27   56 1  
    59   28   57 1  
    60   28   58 1  
    61   28   59 1  
@<TRIPOS>SUBSTRUCTURE
     1 M7N         1

