### 
### Created by X-TOOL on Mon Aug  2 16:16:54 2021
### 

@<TRIPOS>MOLECULE
6t1m_ligand
   49    52     1     0     0
SMALL
GAST_HUCK


@<TRIPOS>ATOM
      1 N1          0.2380   15.1680   15.9590 N.am      1 M8K        -0.2379
      2 C2          3.1380   14.0010   12.3320 C.ar      1 M8K        -0.0222
      3 N3         -4.2320   14.8580   19.2320 N.2       1 M8K        -0.3230
      4 C4          1.6770   14.8710   14.0450 C.ar      1 M8K         0.0638
      5 N4         -6.6930   12.8900   19.4650 N.4       1 M8K         0.2539
      6 C5          2.7390   15.6300   14.5370 C.ar      1 M8K        -0.0311
      7 C6          3.9850   15.5830   13.9330 C.ar      1 M8K        -0.0222
      8 O          -0.6760   14.9650   13.8880 O.2       1 M8K        -0.3705
      9 C7          0.3040   14.9890   14.6160 C.2       1 M8K         0.2361
     10 C3          1.8980   14.0490   12.9430 C.ar      1 M8K        -0.0311
     11 C1          4.1930   14.7690   12.8230 C.ar      1 M8K         0.0991
     12 C           5.4980   14.6810   12.2230 C.1       1 M8K         0.1035
     13 N           6.5480   14.6310   11.7780 N.1       1 M8K        -0.3263
     14 C8         -0.9020   15.0860   16.8050 C.ar      1 M8K         0.0522
     15 C13        -2.1740   14.6990   16.3530 C.ar      1 M8K        -0.0234
     16 C12        -3.2310   14.6530   17.2670 C.ar      1 M8K         0.0648
     17 N2         -4.5590   14.2320   17.1150 N.pl3     1 M8K        -0.2478
     18 C14        -5.1020   14.3740   18.3140 C.2       1 M8K         0.1617
     19 C11        -3.0150   15.0280   18.5890 C.ar      1 M8K         0.0083
     20 C10        -1.7670   15.4220   19.0450 C.ar      1 M8K        -0.0744
     21 C9         -0.7080   15.4430   18.1470 C.ar      1 M8K        -0.0543
     22 C15        -6.5350   14.0930   18.6420 C.3       1 M8K         0.0482
     23 C20        -6.1340   13.1030   20.8170 C.3       1 M8K        -0.0298
     24 C19        -6.7370   12.1800   21.8730 C.3       1 M8K        -0.0123
     25 C18        -7.2380   10.9080   21.2640 C.3       1 M8K        -0.0434
     26 C17        -8.3300   11.1900   20.2660 C.3       1 M8K        -0.0123
     27 C16        -8.1190   12.5330   19.5810 C.3       1 M8K        -0.0298
     28 H1          1.1023   15.3856   16.4125 H         1 M8K         0.2232
     29 H2          3.2901   13.3639   11.4682 H         1 M8K         0.0727
     30 H3         -6.1995   12.1299   19.0237 H         1 M8K         0.2055
     31 H4          2.5875   16.2645   15.4027 H         1 M8K         0.0689
     32 H5          4.7994   16.1812   14.3255 H         1 M8K         0.0727
     33 H6          1.0882   13.4391   12.5592 H         1 M8K         0.0689
     34 H7         -2.3337   14.4402   15.3125 H         1 M8K         0.0403
     35 H8         -5.0135   13.8873   16.2574 H         1 M8K         0.2305
     36 H9         -1.6207   15.7076   20.0804 H         1 M8K         0.0513
     37 H10         0.2781   15.7382   18.4868 H         1 M8K         0.0433
     38 H11        -6.9474   14.9530   19.1901 H         1 M8K         0.1083
     39 H12        -7.0919   13.9550   17.7035 H         1 M8K         0.1083
     40 H13        -6.3256   14.1447   21.1137 H         1 M8K         0.0815
     41 H14        -5.0490   12.9265   20.7778 H         1 M8K         0.0815
     42 H15        -7.5753   12.6965   22.3633 H         1 M8K         0.0317
     43 H16        -5.9666   11.9398   22.6205 H         1 M8K         0.0317
     44 H17        -7.6339   10.2586   22.0586 H         1 M8K         0.0269
     45 H18        -6.4062   10.3991   20.7550 H         1 M8K         0.0269
     46 H19        -9.2982   11.2021   20.7879 H         1 M8K         0.0317
     47 H20        -8.3336   10.3960   19.5047 H         1 M8K         0.0317
     48 H21        -8.5542   12.4864   18.5718 H         1 M8K         0.0815
     49 H22        -8.6311   13.3114   20.1656 H         1 M8K         0.0815
@<TRIPOS>BOND
     1    1    9 am 
     2   14    1 1  
     3   10    2 ar 
     4    2   11 ar 
     5   18    3 2  
     6    3   19 1  
     7    4    6 ar 
     8    9    4 1  
     9    4   10 ar 
    10   22    5 1  
    11    5   23 1  
    12    5   27 1  
    13    6    7 ar 
    14    7   11 ar 
    15    9    8 2  
    16   11   12 1  
    17   12   13 3  
    18   15   14 ar 
    19   14   21 ar 
    20   16   15 ar 
    21   17   16 1  
    22   16   19 ar 
    23   18   17 1  
    24   18   22 1  
    25   19   20 ar 
    26   20   21 ar 
    27   23   24 1  
    28   24   25 1  
    29   25   26 1  
    30   26   27 1  
    31    1   28 1  
    32    2   29 1  
    33    5   30 1  
    34    6   31 1  
    35    7   32 1  
    36   10   33 1  
    37   15   34 1  
    38   17   35 1  
    39   20   36 1  
    40   21   37 1  
    41   22   38 1  
    42   22   39 1  
    43   23   40 1  
    44   23   41 1  
    45   24   42 1  
    46   24   43 1  
    47   25   44 1  
    48   25   45 1  
    49   26   46 1  
    50   26   47 1  
    51   27   48 1  
    52   27   49 1  
@<TRIPOS>SUBSTRUCTURE
     1 M8K         1

