### 
### Created by X-TOOL on Mon Aug  2 16:16:54 2021
### 

@<TRIPOS>MOLECULE
6t1n_ligand
   48    51     1     0     0
SMALL
GAST_HUCK


@<TRIPOS>ATOM
      1 C1          4.0340   15.8150   13.7920 C.ar      1 M7Z        -0.0423
      2 C2          2.7900   15.8190   14.4060 C.ar      1 M7Z        -0.0412
      3 N2         -6.6260   12.9750   19.3900 N.4       1 M7Z         0.2539
      4 C3          1.7800   14.9520   13.9850 C.ar      1 M7Z         0.0556
      5 C4          2.0510   14.0660   12.9440 C.ar      1 M7Z        -0.0412
      6 C5          3.2900   14.0580   12.3230 C.ar      1 M7Z        -0.0423
      7 C6          0.4030   15.0260   14.5750 C.2       1 M7Z         0.2305
      8 C7         -0.7880   15.2480   16.7740 C.ar      1 M7Z         0.0520
      9 C8         -0.5950   15.6660   18.1030 C.ar      1 M7Z        -0.0544
     10 C9         -1.6300   15.5870   19.0260 C.ar      1 M7Z        -0.0744
     11 C10        -2.8600   15.1010   18.6060 C.ar      1 M7Z         0.0082
     12 C11        -4.9510   14.4490   18.3530 C.2       1 M7Z         0.1617
     13 C12        -6.3960   14.2380   18.6770 C.3       1 M7Z         0.0482
     14 C13        -6.2690   13.1010   20.8170 C.3       1 M7Z        -0.0298
     15 C14        -6.4730   11.7900   21.5760 C.3       1 M7Z        -0.0123
     16 C15        -7.8970   11.2890   21.4310 C.3       1 M7Z        -0.0434
     17 C16        -8.3020   11.2430   19.9680 C.3       1 M7Z        -0.0123
     18 C17        -8.0400   12.5750   19.2870 C.3       1 M7Z        -0.0298
     19 C18        -3.0790   14.6910   17.2970 C.ar      1 M7Z         0.0648
     20 C19        -2.0380   14.7630   16.3630 C.ar      1 M7Z        -0.0235
     21 O          -0.5920   14.9110   13.8630 O.2       1 M7Z        -0.3739
     22 C           4.2680   14.9420   12.7540 C.ar      1 M7Z         0.0450
     23 CL          5.8330   14.9470   11.9610 Cl        1 M7Z        -0.0666
     24 N           0.3480   15.2740   15.9150 N.am      1 M7Z        -0.2390
     25 N3         -4.4120   14.2740   17.1580 N.pl3     1 M7Z        -0.2478
     26 N1         -4.0720   14.9360   19.2590 N.2       1 M7Z        -0.3231
     27 H1          4.8125   16.4914   14.1258 H         1 M7Z         0.0634
     28 H2          2.5996   16.5046   15.2238 H         1 M7Z         0.0668
     29 H3         -6.0514   12.2605   18.9713 H         1 M7Z         0.2055
     30 H4          1.2833   13.3746   12.6159 H         1 M7Z         0.0668
     31 H5          3.4922   13.3694   11.5106 H         1 M7Z         0.0634
     32 H6          0.3699   16.0532   18.4097 H         1 M7Z         0.0433
     33 H7         -1.4799   15.8986   20.0533 H         1 M7Z         0.0513
     34 H8         -6.7425   15.0694   19.3084 H         1 M7Z         0.1083
     35 H9         -6.9710   14.2253   17.7394 H         1 M7Z         0.1083
     36 H10        -6.9000   13.8777   21.2738 H         1 M7Z         0.0815
     37 H11        -5.2119   13.3952   20.8940 H         1 M7Z         0.0815
     38 H12        -6.2574   11.9551   22.6420 H         1 M7Z         0.0317
     39 H13        -5.7835   11.0323   21.1755 H         1 M7Z         0.0317
     40 H14        -8.5749   11.9652   21.9725 H         1 M7Z         0.0269
     41 H15        -7.9696   10.2779   21.8579 H         1 M7Z         0.0269
     42 H16        -9.3746   11.0090   19.8991 H         1 M7Z         0.0317
     43 H17        -7.7222   10.4590   19.4590 H         1 M7Z         0.0317
     44 H18        -8.3092   12.4900   18.2238 H         1 M7Z         0.0815
     45 H19        -8.6635   13.3464   19.7626 H         1 M7Z         0.0815
     46 H20        -2.1961   14.4486   15.3377 H         1 M7Z         0.0402
     47 H21         1.2181   15.5039   16.3510 H         1 M7Z         0.2230
     48 H22        -4.8705   13.9109   16.3102 H         1 M7Z         0.2305
@<TRIPOS>BOND
     1    2    1 ar 
     2    1   22 ar 
     3    4    2 ar 
     4   13    3 1  
     5    3   14 1  
     6    3   18 1  
     7    4    5 ar 
     8    7    4 1  
     9    5    6 ar 
    10    6   22 ar 
    11    7   21 2  
    12   24    7 am 
    13    9    8 ar 
    14    8   20 ar 
    15    8   24 1  
    16   10    9 ar 
    17   11   10 ar 
    18   11   19 ar 
    19   26   11 1  
    20   12   13 1  
    21   12   25 1  
    22   12   26 2  
    23   14   15 1  
    24   15   16 1  
    25   16   17 1  
    26   17   18 1  
    27   19   20 ar 
    28   19   25 1  
    29   22   23 1  
    30    1   27 1  
    31    2   28 1  
    32    3   29 1  
    33    5   30 1  
    34    6   31 1  
    35    9   32 1  
    36   10   33 1  
    37   13   34 1  
    38   13   35 1  
    39   14   36 1  
    40   14   37 1  
    41   15   38 1  
    42   15   39 1  
    43   16   40 1  
    44   16   41 1  
    45   17   42 1  
    46   17   43 1  
    47   18   44 1  
    48   18   45 1  
    49   20   46 1  
    50   24   47 1  
    51   25   48 1  
@<TRIPOS>SUBSTRUCTURE
     1 M7Z         1

