### 
### Created by X-TOOL on Mon Aug  2 16:16:54 2021
### 

@<TRIPOS>MOLECULE
6t1o_ligand
   48    51     1     0     0
SMALL
GAST_HUCK


@<TRIPOS>ATOM
      1 N1         -4.5420   14.3350   17.1050 N.pl3     1 M82        -0.2478
      2 C2          2.6610   15.9010   14.3520 C.ar      1 M82        -0.0387
      3 N3         -6.6660   12.9260   19.3240 N.4       1 M82         0.2539
      4 C4          2.0390   14.0740   12.9270 C.ar      1 M82        -0.0387
      5 C5          3.2910   14.1060   12.3350 C.ar      1 M82        -0.0453
      6 C6          0.3220   15.0020   14.5150 C.2       1 M82         0.2323
      7 O          -0.6640   14.8680   13.7940 O.2       1 M82        -0.3728
      8 C3          1.7020   14.9790   13.9340 C.ar      1 M82         0.0581
      9 C1          3.9160   15.9330   13.7700 C.ar      1 M82        -0.0453
     10 C           4.2200   15.0440   12.7540 C.ar      1 M82         0.0136
     11 I           6.0970   15.1470   11.8140 I         1 M82        -0.0459
     12 N           0.2510   15.2380   15.8570 N.am      1 M82        -0.2387
     13 C7         -0.8920   15.1930   16.7150 C.ar      1 M82         0.0521
     14 C12        -2.1670   14.7910   16.2950 C.ar      1 M82        -0.0234
     15 C11        -3.2030   14.7330   17.2340 C.ar      1 M82         0.0648
     16 C13        -5.0610   14.4820   18.3130 C.2       1 M82         0.1617
     17 N2         -4.1660   14.9410   19.2190 N.2       1 M82        -0.3231
     18 C10        -2.9590   15.1020   18.5540 C.ar      1 M82         0.0083
     19 C9         -1.7100   15.5190   18.9770 C.ar      1 M82        -0.0744
     20 C8         -0.6760   15.5660   18.0520 C.ar      1 M82        -0.0543
     21 C14        -6.4900   14.2230   18.6660 C.3       1 M82         0.0482
     22 C19        -6.3090   13.0070   20.7510 C.3       1 M82        -0.0298
     23 C18        -6.4460   11.6590   21.4480 C.3       1 M82        -0.0123
     24 C17        -7.8410   11.1010   21.2870 C.3       1 M82        -0.0434
     25 C16        -8.2560   11.1040   19.8260 C.3       1 M82        -0.0123
     26 C15        -8.0600   12.4730   19.2080 C.3       1 M82        -0.0298
     27 H1         -5.0176   14.0010   16.2547 H         1 M82         0.2305
     28 H2          2.4202   16.6018   15.1432 H         1 M82         0.0675
     29 H3         -6.0644   12.2537   18.8744 H         1 M82         0.2055
     30 H4          1.3125   13.3371   12.6041 H         1 M82         0.0675
     31 H5          3.5418   13.4022   11.5497 H         1 M82         0.0656
     32 H6          4.6560   16.6496   14.1076 H         1 M82         0.0656
     33 H7          1.1155   15.4745   16.3006 H         1 M82         0.2231
     34 H8         -2.3480   14.5290   15.2588 H         1 M82         0.0402
     35 H9         -1.5420   15.8032   20.0095 H         1 M82         0.0513
     36 H10         0.3087   15.8941   18.3647 H         1 M82         0.0433
     37 H11        -6.8374   15.0158   19.3448 H         1 M82         0.1083
     38 H12        -7.0917   14.2388   17.7453 H         1 M82         0.1083
     39 H13        -6.9744   13.7313   21.2436 H         1 M82         0.0815
     40 H14        -5.2669   13.3481   20.8382 H         1 M82         0.0815
     41 H15        -6.2314   11.7854   22.5194 H         1 M82         0.0317
     42 H16        -5.7245   10.9535   21.0102 H         1 M82         0.0317
     43 H17        -8.5455   11.7184   21.8635 H         1 M82         0.0269
     44 H18        -7.8628   10.0687   21.6662 H         1 M82         0.0269
     45 H19        -9.3176   10.8253   19.7532 H         1 M82         0.0317
     46 H20        -7.6460   10.3712   19.2774 H         1 M82         0.0317
     47 H21        -8.3325   12.4261   18.1433 H         1 M82         0.0815
     48 H22        -8.7132   13.1933   19.7223 H         1 M82         0.0815
@<TRIPOS>BOND
     1    1   15 1  
     2   16    1 1  
     3    8    2 ar 
     4    2    9 ar 
     5   21    3 1  
     6    3   22 1  
     7    3   26 1  
     8    4    5 ar 
     9    8    4 ar 
    10    5   10 ar 
    11    6    7 2  
    12    6    8 1  
    13   12    6 am 
    14    9   10 ar 
    15   10   11 1  
    16   13   12 1  
    17   14   13 ar 
    18   13   20 ar 
    19   15   14 ar 
    20   15   18 ar 
    21   16   17 2  
    22   16   21 1  
    23   17   18 1  
    24   18   19 ar 
    25   19   20 ar 
    26   22   23 1  
    27   23   24 1  
    28   24   25 1  
    29   25   26 1  
    30    1   27 1  
    31    2   28 1  
    32    3   29 1  
    33    4   30 1  
    34    5   31 1  
    35    9   32 1  
    36   12   33 1  
    37   14   34 1  
    38   19   35 1  
    39   20   36 1  
    40   21   37 1  
    41   21   38 1  
    42   22   39 1  
    43   22   40 1  
    44   23   41 1  
    45   23   42 1  
    46   24   43 1  
    47   24   44 1  
    48   25   45 1  
    49   25   46 1  
    50   26   47 1  
    51   26   48 1  
@<TRIPOS>SUBSTRUCTURE
     1 M82         1

