### 
### Created by X-TOOL on Mon Aug  2 16:16:54 2021
### 

@<TRIPOS>MOLECULE
6t6a_ligand
   24    26     1     0     0
SMALL
GAST_HUCK


@<TRIPOS>ATOM
      1 C4          5.6510   10.5020   27.1810 C.2       1 MLW         0.0484
      2 C5          4.5780   11.5310   27.0240 C.2       1 MLW         0.1064
      3 C6          4.5010   12.2240   25.8580 C.2       1 MLW        -0.0118
      4 C7          5.7790    9.7610   28.3240 C.ar      1 MLW         0.0045
      5 C8          5.0670    9.7630   29.4930 C.ar      1 MLW        -0.0669
      6 C9          5.4360    8.8930   30.4990 C.ar      1 MLW        -0.0740
      7 C10         6.5180    8.0410   30.3290 C.ar      1 MLW        -0.0584
      8 C11         7.2390    8.0540   29.1460 C.ar      1 MLW         0.0630
      9 C12         6.8790    8.9230   28.1260 C.ar      1 MLW         0.0868
     10 O           3.7380   11.7770   27.9360 O.2       1 MLW        -0.4349
     11 C           5.2620   12.1730   24.7390 C.2       1 MLW        -0.0422
     12 C1          6.3510   11.4530   24.3450 C.2       1 MLW        -0.0413
     13 C2          7.0390   10.5180   24.9790 C.2       1 MLW        -0.0113
     14 C3          6.6710   10.0940   26.3330 C.2       1 MLW         0.0929
     15 N           7.4170    9.1370   26.8960 N.pl3     1 MLW        -0.2634
     16 CL          8.6480    6.9410   28.9540 Cl        1 MLW        -0.0777
     17 H1          3.6863   12.9454   25.8159 H         1 MLW         0.0686
     18 H2          4.2279   10.4362   29.6264 H         1 MLW         0.0569
     19 H3          4.8771    8.8752   31.4276 H         1 MLW         0.0528
     20 H4          6.8004    7.3621   31.1255 H         1 MLW         0.0570
     21 H5          4.9251   12.8710   23.9740 H         1 MLW         0.0745
     22 H6          6.7135   11.6859   23.3449 H         1 MLW         0.0695
     23 H7          7.8932   10.0554   24.4868 H         1 MLW         0.0747
     24 H8          8.2313    8.6604   26.4827 H         1 MLW         0.2259
@<TRIPOS>BOND
     1    1    2 1  
     2    1    4 1  
     3    1   14 2  
     4    2    3 1  
     5    2   10 2  
     6    3   11 2  
     7    4    5 ar 
     8    4    9 ar 
     9    5    6 ar 
    10    6    7 ar 
    11    7    8 ar 
    12    8    9 ar 
    13    8   16 1  
    14    9   15 1  
    15   11   12 1  
    16   12   13 2  
    17   13   14 1  
    18   14   15 1  
    19    3   17 1  
    20    5   18 1  
    21    6   19 1  
    22    7   20 1  
    23   11   21 1  
    24   12   22 1  
    25   13   23 1  
    26   15   24 1  
@<TRIPOS>SUBSTRUCTURE
     1 MLW         1

