### 
### Created by X-TOOL on Mon Aug  2 16:16:54 2021
### 

@<TRIPOS>MOLECULE
6te6_ligand
   52    55     1     0     0
SMALL
GAST_HUCK


@<TRIPOS>ATOM
      1 C1         31.5880  -10.4790   10.7210 C.ar      1 N4W         0.0679
      2 C2         31.3270  -10.9550    9.4230 C.ar      1 N4W        -0.0511
      3 C3         30.1390  -11.6180    9.1400 C.ar      1 N4W        -0.0605
      4 C11        26.6780  -11.1420    9.0800 C.3       1 N4W         0.0578
      5 C12        33.8620   -9.8110   10.0460 C.3       1 N4W         0.1155
      6 C13        35.2020   -9.5050   10.7180 C.ar      1 N4W         0.0633
      7 C15        36.2870   -8.5900   12.6320 C.ar      1 N4W         0.0032
      8 C16        37.5470   -8.8450   12.0710 C.ar      1 N4W        -0.0408
      9 C17        37.6150   -9.4380   10.7990 C.ar      1 N4W        -0.0485
     10 C18        36.4380   -9.7880   10.1130 C.ar      1 N4W        -0.0282
     11 C19        33.5890   -8.6600    9.0590 C.ar      1 N4W        -0.0049
     12 C20        33.1070   -7.4120    9.4950 C.ar      1 N4W        -0.0557
     13 C21        32.9240   -6.3460    8.5750 C.ar      1 N4W        -0.0675
     14 C22        33.2530   -6.5300    7.2210 C.ar      1 N4W        -0.0545
     15 C23        33.7900   -7.7680    6.7970 C.ar      1 N4W         0.0343
     16 C24        33.9430   -8.8250    7.7100 C.ar      1 N4W        -0.0420
     17 C27        30.5390  -10.4270   14.2270 C.ar      1 N4W         0.2110
     18 C29        30.6100   -9.8940   16.5530 C.ar      1 N4W         0.0152
     19 C30        29.8560  -11.0470   16.8500 C.ar      1 N4W        -0.0224
     20 C4         29.1740  -11.7440   10.1500 C.ar      1 N4W         0.0651
     21 C5         29.4020  -11.2360   11.4320 C.ar      1 N4W        -0.0244
     22 C6         30.6290  -10.6120   11.7400 C.ar      1 N4W         0.0870
     23 N7         32.7840   -9.9340   11.0160 N.pl3     1 N4W        -0.2995
     24 S8         27.6400  -12.5140    9.7520 S.o2      1 N4W        -0.0140
     25 O9         27.0690  -12.9410   11.0240 O.2       1 N4W        -0.1714
     26 O10        27.9040  -13.4820    8.7160 O.2       1 N4W        -0.1714
     27 N14        35.1690   -8.9240   11.9420 N.ar      1 N4W        -0.2938
     28 CL1        34.2170   -8.0640    5.1140 Cl        1 N4W        -0.0724
     29 N26        30.8990  -10.0480   12.9650 N.pl3     1 N4W        -0.2454
     30 N28        30.9220   -9.6150   15.2530 N.ar      1 N4W        -0.2499
     31 C31        29.4620  -11.8720   15.7730 C.ar      1 N4W         0.0152
     32 N32        29.8030  -11.5410   14.4960 N.ar      1 N4W        -0.2499
     33 H1         32.0584  -10.8033    8.6375 H         1 N4W         0.0479
     34 H2         29.9608  -12.0314    8.1539 H         1 N4W         0.0505
     35 H3         25.6801  -11.5018    8.7890 H         1 N4W         0.0466
     36 H4         27.1914  -10.7315    8.1980 H         1 N4W         0.0466
     37 H5         26.5763  -10.3568    9.8436 H         1 N4W         0.0466
     38 H6         33.9411  -10.7580    9.4920 H         1 N4W         0.0897
     39 H7         36.2078   -8.1293   13.6100 H         1 N4W         0.0804
     40 H8         38.4524   -8.5891   12.6093 H         1 N4W         0.0654
     41 H9         38.5804   -9.6269   10.3436 H         1 N4W         0.0719
     42 H10        36.4835  -10.2648    9.1406 H         1 N4W         0.0656
     43 H11        32.8732   -7.2630   10.5430 H         1 N4W         0.0564
     44 H12        32.5322   -5.3944    8.9155 H         1 N4W         0.0600
     45 H13        33.0964   -5.7294    6.5072 H         1 N4W         0.0568
     46 H14        34.3376   -9.7758    7.3703 H         1 N4W         0.0568
     47 H15        30.9390   -9.2352   17.3485 H         1 N4W         0.0901
     48 H16        29.5873  -11.2927   17.8710 H         1 N4W         0.0667
     49 H17        28.6336  -11.3218   12.1918 H         1 N4W         0.0515
     50 H18        32.9431   -9.5881   11.9730 H         1 N4W         0.1782
     51 H19        31.4712   -9.1925   12.9237 H         1 N4W         0.2147
     52 H20        28.8868  -12.7709   15.9631 H         1 N4W         0.0901
@<TRIPOS>BOND
     1    1    2 ar 
     2   22    1 ar 
     3    1   23 1  
     4    2    3 ar 
     5   20    3 ar 
     6   24    4 1  
     7    5    6 1  
     8    5   11 1  
     9   23    5 1  
    10    6   10 ar 
    11    6   27 ar 
    12    7    8 ar 
    13   27    7 ar 
    14    9    8 ar 
    15   10    9 ar 
    16   11   12 ar 
    17   11   16 ar 
    18   12   13 ar 
    19   13   14 ar 
    20   15   14 ar 
    21   16   15 ar 
    22   15   28 1  
    23   29   17 1  
    24   17   30 ar 
    25   17   32 ar 
    26   18   19 ar 
    27   30   18 ar 
    28   19   31 ar 
    29   21   20 ar 
    30   20   24 1  
    31   22   21 ar 
    32   22   29 1  
    33   24   25 2  
    34   24   26 2  
    35   31   32 ar 
    36    2   33 1  
    37    3   34 1  
    38    4   35 1  
    39    4   36 1  
    40    4   37 1  
    41    5   38 1  
    42    7   39 1  
    43    8   40 1  
    44    9   41 1  
    45   10   42 1  
    46   12   43 1  
    47   13   44 1  
    48   14   45 1  
    49   16   46 1  
    50   18   47 1  
    51   19   48 1  
    52   21   49 1  
    53   23   50 1  
    54   29   51 1  
    55   31   52 1  
@<TRIPOS>SUBSTRUCTURE
     1 N4W         1

