### 
### Created by X-TOOL on Mon Aug  2 16:16:55 2021
### 

@<TRIPOS>MOLECULE
6tl2_ligand
   32    32     1     0     0
SMALL
GAST_HUCK


@<TRIPOS>ATOM
      1 CAB       -27.4920  -17.8530  -31.2520 C.cat     1 NJZ         0.2668
      2 CAE       -25.7040  -18.2000  -29.1160 C.3       1 NJZ         0.0283
      3 CAF       -24.8820  -17.5680  -28.1880 C.ar      1 NJZ        -0.0375
      4 CAG       -25.3760  -17.1630  -26.9430 C.ar      1 NJZ        -0.0569
      5 CAH       -24.5200  -16.5080  -26.0480 C.ar      1 NJZ        -0.0001
      6 CAJ       -23.2020  -16.2630  -26.4030 C.ar      1 NJZ        -0.0569
      7 CAK       -22.7210  -16.6380  -27.6520 C.ar      1 NJZ        -0.0375
      8 CAL       -21.4220  -16.3840  -27.9690 C.3       1 NJZ         0.0283
      9 CAN       -18.9190  -17.7790  -26.9980 C.cat     1 NJZ         0.2668
     10 CAQ       -23.5590  -17.3100  -28.5400 C.ar      1 NJZ        -0.0548
     11 NAA       -28.3830  -18.7270  -30.7860 N.pl3     1 NJZ        -0.2667
     12 NAC       -27.3160  -17.5970  -32.5470 N.pl3     1 NJZ        -0.2667
     13 NAO       -18.3140  -18.7440  -26.2980 N.pl3     1 NJZ        -0.2667
     14 NAP       -18.2610  -16.8760  -27.7110 N.pl3     1 NJZ        -0.2667
     15 SAD       -26.5590  -16.9270  -30.1170 S.3       1 NJZ        -0.0731
     16 SAM       -20.6710  -17.6900  -26.8850 S.3       1 NJZ        -0.0731
     17 BR1       -25.0650  -15.9320  -24.3450 Br        1 NJZ        -0.0535
     18 H1        -26.4477  -18.8171  -28.5905 H         1 NJZ         0.0534
     19 H2        -25.0957  -18.8390  -29.7731 H         1 NJZ         0.0534
     20 H3        -26.4087  -17.3538  -26.6742 H         1 NJZ         0.0526
     21 H4        -22.5394  -15.7735  -25.6984 H         1 NJZ         0.0526
     22 H5        -21.1093  -15.3686  -27.6840 H         1 NJZ         0.0534
     23 H6        -21.2086  -16.5476  -29.0356 H         1 NJZ         0.0534
     24 H7        -23.1816  -17.6317  -29.5039 H         1 NJZ         0.0518
     25 H8        -28.9470  -19.2866  -31.4415 H         1 NJZ         0.3186
     26 H9        -28.5079  -18.8431  -29.7702 H         1 NJZ         0.3186
     27 H10       -26.6096  -16.9090  -32.8446 H         1 NJZ         0.3186
     28 H11       -27.8863  -18.0870  -33.2510 H         1 NJZ         0.3186
     29 H12       -17.2889  -18.8384  -26.3306 H         1 NJZ         0.3186
     30 H13       -18.8730  -19.3931  -25.7261 H         1 NJZ         0.3186
     31 H14       -18.7789  -16.1539  -28.2317 H         1 NJZ         0.3186
     32 H15       -17.2317  -16.8964  -27.7443 H         1 NJZ         0.3186
@<TRIPOS>BOND
     1    1   11 ar 
     2    1   12 ar 
     3   15    1 1  
     4    3    2 1  
     5    2   15 1  
     6    3    4 ar 
     7   10    3 ar 
     8    5    4 ar 
     9    6    5 ar 
    10    5   17 1  
    11    7    6 ar 
    12    8    7 1  
    13    7   10 ar 
    14   16    8 1  
    15    9   13 ar 
    16    9   14 ar 
    17    9   16 1  
    18    2   18 1  
    19    2   19 1  
    20    4   20 1  
    21    6   21 1  
    22    8   22 1  
    23    8   23 1  
    24   10   24 1  
    25   11   25 1  
    26   11   26 1  
    27   12   27 1  
    28   12   28 1  
    29   13   29 1  
    30   13   30 1  
    31   14   31 1  
    32   14   32 1  
@<TRIPOS>SUBSTRUCTURE
     1 NJZ         1

