### 
### Created by X-TOOL on Mon Aug  2 16:16:55 2021
### 

@<TRIPOS>MOLECULE
6tld_ligand
   26    27     1     0     0
SMALL
GAST_HUCK


@<TRIPOS>ATOM
      1 C4         42.1950   35.4630   84.2760 C.ar      1 NK5         0.1021
      2 C2         39.9530   35.8260   85.0420 C.ar      1 NK5        -0.0725
      3 C3         41.2370   35.3630   85.2760 C.ar      1 NK5        -0.0351
      4 C1         39.6210   36.3800   83.8210 C.ar      1 NK5        -0.0745
      5 C6         40.5720   36.4670   82.8240 C.ar      1 NK5        -0.0725
      6 C16        44.0150   34.2260   85.5200 C.2       1 NK5         0.0929
      7 C17        45.9180   32.5270   85.7670 C.2       1 NK5         0.2272
      8 C5         41.8600   36.0100   83.0430 C.ar      1 NK5        -0.0351
      9 N12        43.5370   35.0490   84.5250 N.pl3     1 NK5        -0.2127
     10 N13        44.3430   34.8070   83.3190 N.4       1 NK5         0.4610
     11 N14        45.3260   33.7890   83.7170 N.pl3     1 NK5        -0.2718
     12 C15        45.0830   33.4980   85.0130 C.2       1 NK5         0.1537
     13 N18        46.1200   31.3620   85.1430 N.am      1 NK5        -0.1674
     14 O19        47.2520   30.5970   85.4180 O.3       1 NK5        -0.2730
     15 O20        46.3760   32.8050   86.8770 O.2       1 NK5        -0.4003
     16 H1         39.2037   35.7532   85.8220 H         1 NK5         0.0584
     17 H2         41.4926   34.9251   86.2341 H         1 NK5         0.0529
     18 H3         38.6157   36.7457   83.6460 H         1 NK5         0.0510
     19 H4         40.3084   36.8958   81.8639 H         1 NK5         0.0584
     20 H5         43.6219   34.1577   86.5333 H         1 NK5         0.0866
     21 H6         42.6035   36.0783   82.2571 H         1 NK5         0.0529
     22 H7         44.8072   35.6529   83.0274 H         1 NK5         0.2652
     23 H8         43.7636   34.4656   82.5681 H         1 NK5         0.2652
     24 H9         46.0589   33.3771   83.1219 H         1 NK5         0.2190
     25 H10        45.4528   31.0366   84.4729 H         1 NK5         0.2197
     26 H11        48.0308   31.1006   85.2122 H         1 NK5         0.2489
@<TRIPOS>BOND
     1    1    3 ar 
     2    1    8 ar 
     3    1    9 1  
     4    3    2 ar 
     5    2    4 ar 
     6    4    5 ar 
     7    5    8 ar 
     8    9    6 1  
     9    6   12 2  
    10   12    7 1  
    11    7   13 am 
    12    7   15 2  
    13    9   10 1  
    14   10   11 1  
    15   11   12 1  
    16   13   14 1  
    17    2   16 1  
    18    3   17 1  
    19    4   18 1  
    20    5   19 1  
    21    6   20 1  
    22    8   21 1  
    23   10   22 1  
    24   10   23 1  
    25   11   24 1  
    26   13   25 1  
    27   14   26 1  
@<TRIPOS>SUBSTRUCTURE
     1 NK5         1

