### 
### Created by X-TOOL on Mon Aug  2 16:16:56 2021
### 

@<TRIPOS>MOLECULE
6u5y_ligand
   47    49     1     0     0
SMALL
GAST_HUCK


@<TRIPOS>ATOM
      1 C10        -4.8090   -4.7220   -2.7600 C.ar      1 Q0M         0.1307
      2 C13        -2.8150   -7.7010   -1.5960 C.2       1 Q0M         0.2061
      3 C15        -8.7240   -6.8880   -5.6140 C.3       1 Q0M        -0.0676
      4 C17        -7.1980   -7.3940   -4.1600 C.3       1 Q0M         0.0667
      5 C01        -5.0320   -2.9550    2.5430 C.ar      1 Q0M        -0.0469
      6 C02        -6.2820   -3.2160    2.0080 C.ar      1 Q0M         0.0037
      7 C03        -6.5340   -3.0620    0.6610 C.ar      1 Q0M        -0.0336
      8 C04        -5.5020   -2.6410   -0.1790 C.ar      1 Q0M         0.1451
      9 C05        -4.2500   -2.3870    0.3390 C.ar      1 Q0M         0.1321
     10 C06        -4.0450   -2.5580    1.6930 C.ar      1 Q0M         0.0724
     11 C07        -4.9740   -7.5140   -2.8550 C.ar      1 Q0M        -0.0357
     12 C08        -3.8820   -6.9040   -2.2080 C.ar      1 Q0M         0.1055
     13 C09        -3.8070   -5.4960   -2.1830 C.ar      1 Q0M         0.1707
     14 C11        -5.8840   -5.3410   -3.3790 C.ar      1 Q0M        -0.0290
     15 C12        -5.9970   -6.7380   -3.4340 C.ar      1 Q0M        -0.0516
     16 C14        -1.9320   -9.8350   -0.7240 C.3       1 Q0M         0.0189
     17 C16        -7.2140   -7.2260   -5.7130 C.3       1 Q0M        -0.0576
     18 C18        -8.5330   -6.5870   -4.0970 C.3       1 Q0M        -0.0576
     19 C19        -7.3760   -8.8150   -3.7940 C.1       1 Q0M         0.0428
     20 N01        -4.6850   -3.3200   -2.7320 N.am      1 Q0M        -0.1813
     21 N02        -3.0010   -9.0290   -1.3360 N.am      1 Q0M        -0.2903
     22 N03        -7.5430   -9.9140   -3.5360 N.1       1 Q0M        -0.3171
     23 O01        -3.2450   -2.0000   -0.5020 O.3       1 Q0M        -0.3282
     24 O02        -7.1390   -2.8480   -2.2060 O.2       1 Q0M        -0.1465
     25 O03        -5.5250   -1.0480   -2.2360 O.2       1 Q0M        -0.1465
     26 O04        -2.7640   -4.8090   -1.5820 O.3       1 Q0M        -0.3056
     27 O05        -1.7140   -7.2180   -1.3130 O.2       1 Q0M        -0.3890
     28 S01        -5.8120   -2.3990   -1.9220 S.o2      1 Q0M         0.0875
     29 BR1        -7.6670   -3.7740    3.1410 Br        1 Q0M        -0.0599
     30 CL1        -2.5070   -2.2740    2.3710 Cl        1 Q0M        -0.0780
     31 H1         -9.3922   -7.7355   -5.8264 H         1 Q0M         0.0248
     32 H2         -9.0332   -6.0183   -6.2124 H         1 Q0M         0.0248
     33 H3         -4.8449   -3.0633    3.6052 H         1 Q0M         0.0622
     34 H4         -7.5204   -3.2652    0.2600 H         1 Q0M         0.0637
     35 H5         -5.0280   -8.5954   -2.9081 H         1 Q0M         0.0799
     36 H6         -6.6565   -4.7301   -3.8318 H         1 Q0M         0.0624
     37 H7         -2.2798  -10.8711   -0.5991 H         1 Q0M         0.0483
     38 H8         -1.6725   -9.4144    0.2587 H         1 Q0M         0.0483
     39 H9         -1.0449   -9.8220   -1.3743 H         1 Q0M         0.0483
     40 H10        -6.5867   -6.4043   -6.0890 H         1 Q0M         0.0166
     41 H11        -6.9885   -8.1454   -6.2732 H         1 Q0M         0.0166
     42 H12        -9.3016   -7.0260   -3.4440 H         1 Q0M         0.0166
     43 H13        -8.4112   -5.5210   -3.8547 H         1 Q0M         0.0166
     44 H14        -3.9197   -2.8767   -3.1987 H         1 Q0M         0.2144
     45 H15        -3.8744   -9.4591   -1.5643 H         1 Q0M         0.1838
     46 H16        -2.5442   -2.6407   -0.4721 H         1 Q0M         0.2497
     47 H17        -2.9054   -3.8744   -1.6772 H         1 Q0M         0.2631
@<TRIPOS>BOND
     1    1   13 ar 
     2    1   14 ar 
     3   20    1 1  
     4   12    2 1  
     5    2   21 am 
     6    2   27 2  
     7   17    3 1  
     8   18    3 1  
     9   15    4 1  
    10    4   17 1  
    11    4   18 1  
    12    4   19 1  
    13    6    5 ar 
    14   10    5 ar 
    15    7    6 ar 
    16    6   29 1  
    17    8    7 ar 
    18    8    9 ar 
    19   28    8 1  
    20    9   10 ar 
    21    9   23 1  
    22   10   30 1  
    23   12   11 ar 
    24   15   11 ar 
    25   13   12 ar 
    26   13   26 1  
    27   14   15 ar 
    28   21   16 1  
    29   19   22 3  
    30   20   28 am 
    31   28   24 2  
    32   28   25 2  
    33    3   31 1  
    34    3   32 1  
    35    5   33 1  
    36    7   34 1  
    37   11   35 1  
    38   14   36 1  
    39   16   37 1  
    40   16   38 1  
    41   16   39 1  
    42   17   40 1  
    43   17   41 1  
    44   18   42 1  
    45   18   43 1  
    46   20   44 1  
    47   21   45 1  
    48   23   46 1  
    49   26   47 1  
@<TRIPOS>SUBSTRUCTURE
     1 Q0M         1

