### 
### Created by X-TOOL on Mon Aug  2 16:16:56 2021
### 

@<TRIPOS>MOLECULE
6u6w_ligand
   32    33     1     0     0
SMALL
GAST_HUCK


@<TRIPOS>ATOM
      1 C05         6.2230   -0.6010    9.3680 C.ar      1 Q0Y        -0.0338
      2 C13         6.8150   -1.6450    8.6640 C.ar      1 Q0Y         0.0031
      3 C16         0.8380    0.6590    7.7360 C.ar      1 Q0Y        -0.0743
      4 C15         7.4840   -1.4310    7.4550 C.ar      1 Q0Y        -0.0610
      5 C21         7.6280    2.4460    5.9010 C.3       1 Q0Y         0.0602
      6 C11         7.5820   -0.1460    6.9420 C.ar      1 Q0Y        -0.0282
      7 C02         6.3130    0.6750    8.8160 C.ar      1 Q0Y         0.1444
      8 C04         3.1970    1.9650    8.3420 C.ar      1 Q0Y         0.0925
      9 C12         1.7630    0.8400    6.7220 C.ar      1 Q0Y        -0.0479
     10 C08         2.2570    1.7830    9.3350 C.ar      1 Q0Y        -0.0399
     11 C09         6.9900    0.8980    7.6310 C.ar      1 Q0Y         0.1209
     12 C10         2.9430    1.5020    7.0630 C.ar      1 Q0Y         0.1052
     13 C14         1.0850    1.1130    9.0140 C.ar      1 Q0Y         0.0125
     14 N03         4.4470    2.6780    8.6460 N.am      1 Q0Y        -0.1909
     15 O06         4.9250    1.4410   10.9150 O.2       1 Q0Y        -0.1467
     16 O07         6.5840    3.0550   10.0600 O.2       1 Q0Y        -0.1467
     17 O19         3.8980    1.6750    6.0860 O.3       1 Q0Y        -0.3406
     18 O20         7.0570    2.2200    7.2000 O.3       1 Q0Y        -0.3172
     19 S01         5.5520    2.0470    9.7450 S.o2      1 Q0Y         0.0863
     20 BR1         6.6660   -3.4080    9.3950 Br        1 Q0Y        -0.0599
     21 CL1        -0.1100    0.8650   10.2860 Cl        1 Q0Y        -0.0855
     22 H1          5.7122   -0.7736   10.3084 H         1 Q0Y         0.0635
     23 H2         -0.0958    0.1520    7.5215 H         1 Q0Y         0.0450
     24 H3          7.9240   -2.2655    6.9211 H         1 Q0Y         0.0615
     25 H4          7.6228    3.5237    5.6807 H         1 Q0Y         0.0579
     26 H5          7.0354    1.9138    5.1423 H         1 Q0Y         0.0579
     27 H6          8.6629    2.0736    5.8855 H         1 Q0Y         0.0579
     28 H7          8.1141    0.0376    6.0156 H         1 Q0Y         0.0550
     29 H8          1.5798    0.4854    5.7141 H         1 Q0Y         0.0490
     30 H9          2.4292    2.1534   10.3391 H         1 Q0Y         0.0449
     31 H10         4.6420    3.5483    8.1937 H         1 Q0Y         0.2121
     32 H11         4.6434    2.1367    6.4516 H         1 Q0Y         0.2429
@<TRIPOS>BOND
     1    1    2 ar 
     2    7    1 ar 
     3    2    4 ar 
     4    2   20 1  
     5    9    3 ar 
     6   13    3 ar 
     7    6    4 ar 
     8   18    5 1  
     9   11    6 ar 
    10    7   11 ar 
    11   19    7 1  
    12    8   10 ar 
    13    8   12 ar 
    14   14    8 1  
    15   12    9 ar 
    16   10   13 ar 
    17   11   18 1  
    18   12   17 1  
    19   13   21 1  
    20   14   19 am 
    21   19   15 2  
    22   19   16 2  
    23    1   22 1  
    24    3   23 1  
    25    4   24 1  
    26    5   25 1  
    27    5   26 1  
    28    5   27 1  
    29    6   28 1  
    30    9   29 1  
    31   10   30 1  
    32   14   31 1  
    33   17   32 1  
@<TRIPOS>SUBSTRUCTURE
     1 Q0Y         1

