### 
### Created by X-TOOL on Mon Aug  2 16:16:56 2021
### 

@<TRIPOS>MOLECULE
6u80_ligand
   42    44     1     0     0
SMALL
GAST_HUCK


@<TRIPOS>ATOM
      1 C05       -16.1530   32.5960    3.2080 C.ar      1 Q1J         0.0031
      2 C13       -19.0940   28.7690    4.6750 C.ar      1 Q1J         0.0933
      3 C18       -21.4590   29.2790    4.5600 C.ar      1 Q1J        -0.0445
      4 C17       -21.3570   29.9750    5.7730 C.ar      1 Q1J        -0.0789
      5 C16       -20.1230   30.0820    6.4270 C.ar      1 Q1J        -0.0460
      6 C19       -22.7150   29.0910    3.8290 C.ar      1 Q1J        -0.0289
      7 C20       -23.9320   29.0480    4.5290 C.ar      1 Q1J        -0.0569
      8 C21       -25.1290   28.8250    3.8580 C.ar      1 Q1J        -0.0629
      9 C22       -25.1220   28.6170    2.4750 C.ar      1 Q1J        -0.0632
     10 C23       -23.9250   28.6340    1.7570 C.ar      1 Q1J        -0.0629
     11 C24       -22.7230   28.8640    2.4320 C.ar      1 Q1J        -0.0569
     12 C11       -14.3940   29.0160    6.1200 C.3       1 Q1J         0.0602
     13 C03       -16.4100   30.2320    3.3450 C.ar      1 Q1J         0.1444
     14 C04       -16.7420   31.4300    2.7300 C.ar      1 Q1J        -0.0338
     15 C07       -15.2230   32.5880    4.2520 C.ar      1 Q1J        -0.0610
     16 C08       -14.9120   31.3760    4.8600 C.ar      1 Q1J        -0.0282
     17 C09       -15.4970   30.1960    4.4040 C.ar      1 Q1J         0.1209
     18 C14       -19.0050   29.4700    5.8770 C.ar      1 Q1J         0.1069
     19 C25       -20.3190   28.6640    4.0350 C.ar      1 Q1J        -0.0456
     20 N12       -17.9180   28.1160    4.1460 N.am      1 Q1J        -0.1907
     21 O01       -16.1140   27.8610    2.2980 O.2       1 Q1J        -0.1467
     22 O10       -15.2400   28.9760    4.9530 O.3       1 Q1J        -0.3172
     23 O15       -17.8110   29.5590    6.5260 O.3       1 Q1J        -0.3393
     24 O26       -18.1990   29.1310    1.8310 O.2       1 Q1J        -0.1467
     25 S02       -17.1530   28.7380    2.7400 S.o2      1 Q1J         0.0863
     26 BR6       -16.5550   34.2780    2.4070 Br        1 Q1J        -0.0599
     27 H1        -22.2384   30.4330    6.2072 H         1 Q1J         0.0460
     28 H2        -20.0418   30.6377    7.3542 H         1 Q1J         0.0497
     29 H3        -23.9379   29.1902    5.6036 H         1 Q1J         0.0610
     30 H4        -26.0648   28.8124    4.4050 H         1 Q1J         0.0614
     31 H5        -26.0565   28.4406    1.9548 H         1 Q1J         0.0605
     32 H6        -23.9277   28.4703    0.6854 H         1 Q1J         0.0614
     33 H7        -21.7894   28.8686    1.8812 H         1 Q1J         0.0610
     34 H8        -14.2393   27.9939    6.4959 H         1 Q1J         0.0579
     35 H9        -14.8741   29.6248    6.9003 H         1 Q1J         0.0579
     36 H10       -13.4232   29.4597    5.8541 H         1 Q1J         0.0579
     37 H11       -17.4400   31.4569    1.9011 H         1 Q1J         0.0635
     38 H12       -14.7536   33.5080    4.5811 H         1 Q1J         0.0615
     39 H13       -14.2141   31.3493    5.6891 H         1 Q1J         0.0550
     40 H14       -20.3939   28.0969    3.1142 H         1 Q1J         0.0447
     41 H15       -17.5504   27.3033    4.5981 H         1 Q1J         0.2121
     42 H16       -17.8918   29.1721    7.3899 H         1 Q1J         0.2437
@<TRIPOS>BOND
     1   14    1 ar 
     2    1   15 ar 
     3    1   26 1  
     4    2   18 ar 
     5    2   19 ar 
     6   20    2 1  
     7    3    4 ar 
     8    3    6 1  
     9   19    3 ar 
    10    5    4 ar 
    11   18    5 ar 
    12    6    7 ar 
    13    6   11 ar 
    14    7    8 ar 
    15    8    9 ar 
    16   10    9 ar 
    17   11   10 ar 
    18   22   12 1  
    19   13   14 ar 
    20   13   17 ar 
    21   25   13 1  
    22   16   15 ar 
    23   17   16 ar 
    24   17   22 1  
    25   18   23 1  
    26   20   25 am 
    27   25   21 2  
    28   25   24 2  
    29    4   27 1  
    30    5   28 1  
    31    7   29 1  
    32    8   30 1  
    33    9   31 1  
    34   10   32 1  
    35   11   33 1  
    36   12   34 1  
    37   12   35 1  
    38   12   36 1  
    39   14   37 1  
    40   15   38 1  
    41   16   39 1  
    42   19   40 1  
    43   20   41 1  
    44   23   42 1  
@<TRIPOS>SUBSTRUCTURE
     1 Q1J         1

