### 
### Created by X-TOOL on Mon Aug  2 16:16:56 2021
### 

@<TRIPOS>MOLECULE
6u8b_ligand
   34    35     1     0     0
SMALL
GAST_HUCK


@<TRIPOS>ATOM
      1 C18        -0.1180    0.0300  -10.3190 C.ar      1 Q1M        -0.0373
      2 C16        -0.5250   -1.2580   -9.9760 C.ar      1 Q1M         0.0159
      3 C15        -0.9310   -1.5830   -8.6750 C.ar      1 Q1M        -0.0600
      4 C20        -1.9920    4.4540   -8.4860 C.ar      1 Q1M         0.1209
      5 C22        -0.6280    5.3900   -6.7850 C.3       1 Q1M         0.0602
      6 C23        -3.1750    4.7550   -7.8020 C.ar      1 Q1M        -0.0282
      7 C24        -4.4190    4.3710   -8.3040 C.ar      1 Q1M        -0.0610
      8 C11        -0.9470   -0.5750   -7.7060 C.ar      1 Q1M         0.0243
      9 C02        -4.4700    3.6850   -9.5150 C.ar      1 Q1M         0.0031
     10 C03        -3.3080    3.3730  -10.2140 C.ar      1 Q1M        -0.0338
     11 C04        -2.0680    3.7600   -9.6900 C.ar      1 Q1M         0.1444
     12 C12        -1.3700   -0.8370   -6.3170 C.2       1 Q1M         0.0538
     13 BR1        -6.1240    3.1430  -10.2200 Br        1 Q1M        -0.0599
     14 S05        -0.6190    3.3350  -10.6360 S.o2      1 Q1M         0.0864
     15 O06        -1.0120    2.5810  -11.8040 O.2       1 Q1M        -0.1467
     16 N07         0.2870    2.3570   -9.6040 N.am      1 Q1M        -0.1901
     17 C08        -0.1340    1.0160   -9.3460 C.ar      1 Q1M         0.0965
     18 C09        -0.5440    0.7090   -8.0500 C.ar      1 Q1M         0.1207
     19 O10        -0.5500    1.7140   -7.1200 O.3       1 Q1M        -0.3368
     20 O13        -1.5320   -2.1500   -6.0390 O.co2     1 Q1M        -0.5648
     21 O14        -1.5280    0.0360   -5.4940 O.co2     1 Q1M        -0.5648
     22 CL7        -0.5290   -2.4500  -11.2130 Cl        1 Q1M        -0.0848
     23 O19         0.1320    4.5550  -10.8560 O.2       1 Q1M        -0.1467
     24 O21        -0.7530    4.7970   -8.0690 O.3       1 Q1M        -0.3172
     25 H1          0.2052    0.2562  -11.3287 H         1 Q1M         0.0468
     26 H2         -1.2267   -2.5954   -8.4247 H         1 Q1M         0.0482
     27 H3          0.4306    5.6126   -6.5854 H         1 Q1M         0.0579
     28 H4         -1.0067    4.6946   -6.0215 H         1 Q1M         0.0579
     29 H5         -1.2110    6.3223   -6.7533 H         1 Q1M         0.0579
     30 H6         -3.1241    5.2967   -6.8644 H         1 Q1M         0.0550
     31 H7         -5.3286    4.6023   -7.7616 H         1 Q1M         0.0615
     32 H8         -3.3618    2.8361  -11.1542 H         1 Q1M         0.0635
     33 H9          1.1162    2.7141   -9.1739 H         1 Q1M         0.2122
     34 H10        -0.8482    1.3704   -6.2860 H         1 Q1M         0.2447
@<TRIPOS>BOND
     1    1    2 ar 
     2   17    1 ar 
     3    2    3 ar 
     4    2   22 1  
     5    3    8 ar 
     6    4    6 ar 
     7   11    4 ar 
     8    4   24 1  
     9   24    5 1  
    10    6    7 ar 
    11    9    7 ar 
    12    8   12 1  
    13    8   18 ar 
    14   10    9 ar 
    15    9   13 1  
    16   11   10 ar 
    17   14   11 1  
    18   12   20 ar 
    19   12   21 ar 
    20   14   15 2  
    21   16   14 am 
    22   14   23 2  
    23   16   17 1  
    24   17   18 ar 
    25   18   19 1  
    26    1   25 1  
    27    3   26 1  
    28    5   27 1  
    29    5   28 1  
    30    5   29 1  
    31    6   30 1  
    32    7   31 1  
    33   10   32 1  
    34   16   33 1  
    35   19   34 1  
@<TRIPOS>SUBSTRUCTURE
     1 Q1M         1

