### 
### Created by X-TOOL on Mon Aug  2 16:11:32 2021
### 

@<TRIPOS>MOLECULE
6u8l_ligand
   38    40     1     0     0
SMALL
GAST_HUCK


@<TRIPOS>ATOM
      1 C06         6.8520   -0.7100   15.6150 C.ar      1 Q1P        -0.0294
      2 C18         1.4870    3.7270   17.1230 C.ar      1 Q1P        -0.0610
      3 C16         2.6920    3.7080   17.8390 C.ar      1 Q1P         0.0031
      4 C15         3.2250    2.5140   18.3050 C.ar      1 Q1P        -0.0338
      5 C19         0.8060    2.5290   16.8780 C.ar      1 Q1P        -0.0285
      6 C20         1.3320    1.3260   17.3520 C.ar      1 Q1P         0.1177
      7 C24         4.1200   -0.3790   15.0600 C.ar      1 Q1P         0.1120
      8 C11         4.5240   -0.8410   16.3290 C.ar      1 Q1P         0.0859
      9 C02         4.7200    0.4060   12.7070 C.2       1 Q1P         0.0522
     10 C03         5.0640   -0.0800   14.0670 C.ar      1 Q1P         0.0508
     11 C04         6.4110   -0.2550   14.3640 C.ar      1 Q1P         0.1212
     12 O01         3.3800    0.5690   12.5600 O.co2     1 Q1P        -0.5661
     13 F05         7.3350    0.0200   13.4370 F         1 Q1P        -0.2026
     14 C07         8.3180   -0.8920   15.9090 C.3       1 Q1P        -0.0145
     15 C08         8.8940   -0.2940   17.1660 C.3       1 Q1P        -0.0408
     16 C09         8.7630   -1.7820   17.0440 C.3       1 Q1P        -0.0408
     17 C10         5.8820   -0.9990   16.5880 C.ar      1 Q1P        -0.0504
     18 N12         3.5080   -1.1140   17.2960 N.am      1 Q1P        -0.1940
     19 S13         3.2030   -0.1910   18.6540 S.o2      1 Q1P         0.0856
     20 C14         2.5340    1.3290   18.0590 C.ar      1 Q1P         0.1440
     21 BR7         3.6350    5.3110   18.1840 Br        1 Q1P        -0.0599
     22 O21         0.6360    0.1760   17.0940 O.3       1 Q1P        -0.3290
     23 O22         2.1430   -0.8050   19.4360 O.2       1 Q1P        -0.1468
     24 O23         4.4750    0.1540   19.2640 O.2       1 Q1P        -0.1468
     25 O25         2.7680   -0.2310   14.8400 O.3       1 Q1P        -0.3424
     26 O26         5.4860    0.6440   11.7900 O.co2     1 Q1P        -0.5661
     27 H1          1.0842    4.6658   16.7605 H         1 Q1P         0.0615
     28 H2          4.1618    2.5035   18.8504 H         1 Q1P         0.0635
     29 H3         -0.1251    2.5353   16.3230 H         1 Q1P         0.0550
     30 H4          8.8896   -0.8705   14.9694 H         1 Q1P         0.0431
     31 H5          8.2433    0.2595   17.8590 H         1 Q1P         0.0288
     32 H6          9.8897    0.1731   17.1457 H         1 Q1P         0.0288
     33 H7          9.6623   -2.4057   16.9334 H         1 Q1P         0.0288
     34 H8          8.0159   -2.3193   17.6467 H         1 Q1P         0.0288
     35 H9          6.1980   -1.3531   17.5626 H         1 Q1P         0.0398
     36 H10         2.9352   -1.9202   17.1481 H         1 Q1P         0.2107
     37 H11         1.1794   -0.4144   16.5854 H         1 Q1P         0.2493
     38 H12         2.5800    0.6761   14.6295 H         1 Q1P         0.2423
@<TRIPOS>BOND
     1    1   11 ar 
     2    1   14 1  
     3   17    1 ar 
     4    3    2 ar 
     5    5    2 ar 
     6    4    3 ar 
     7    3   21 1  
     8   20    4 ar 
     9    6    5 ar 
    10   20    6 ar 
    11    6   22 1  
    12    8    7 ar 
    13    7   10 ar 
    14    7   25 1  
    15    8   17 ar 
    16   18    8 1  
    17   10    9 1  
    18    9   12 ar 
    19    9   26 ar 
    20   10   11 ar 
    21   11   13 1  
    22   14   15 1  
    23   14   16 1  
    24   16   15 1  
    25   19   18 am 
    26   19   20 1  
    27   19   23 2  
    28   19   24 2  
    29    2   27 1  
    30    4   28 1  
    31    5   29 1  
    32   14   30 1  
    33   15   31 1  
    34   15   32 1  
    35   16   33 1  
    36   16   34 1  
    37   17   35 1  
    38   18   36 1  
    39   22   37 1  
    40   25   38 1  
@<TRIPOS>SUBSTRUCTURE
     1 Q1P         1

