### 
### Created by X-TOOL on Mon Aug  2 16:16:56 2021
### 

@<TRIPOS>MOLECULE
6u8o_ligand
   40    42     1     0     0
SMALL
GAST_HUCK


@<TRIPOS>ATOM
      1 C06        -0.4650  -19.1600   -0.9990 C.ar      1 Q1G         0.1444
      2 C18         2.1490  -25.2470   -1.9360 C.3       1 Q1G         0.0653
      3 C17         2.1000  -23.8820   -1.0950 C.ar      1 Q1G        -0.0576
      4 C16         2.0930  -22.5920   -1.6860 C.ar      1 Q1G        -0.0326
      5 C19         2.4660  -25.1640   -3.4720 C.3       1 Q1G        -0.0580
      6 C20         3.2930  -26.4540   -3.3180 C.3       1 Q1G        -0.0677
      7 C21         3.4910  -26.0600   -1.8450 C.3       1 Q1G        -0.0580
      8 C22         0.9830  -26.0690   -1.6130 C.1       1 Q1G         0.0423
      9 C24         2.0790  -23.9200    0.3170 C.ar      1 Q1G        -0.0566
     10 C11        -0.9650  -18.0590    1.0900 C.ar      1 Q1G        -0.0285
     11 C02         2.0380  -21.5230    0.4840 C.ar      1 Q1G         0.1499
     12 C03         2.0470  -21.4200   -0.9110 C.ar      1 Q1G         0.1256
     13 C12        -0.0740  -18.3300    0.0540 C.ar      1 Q1G         0.1178
     14 O01         2.0080  -20.4210    1.2930 O.3       1 Q1G        -0.3104
     15 N04         2.0590  -20.1210   -1.5500 N.am      1 Q1G        -0.1821
     16 S05         0.6630  -19.4950   -2.3100 S.o2      1 Q1G         0.0875
     17 C07        -1.7500  -19.7120   -1.0380 C.ar      1 Q1G        -0.0338
     18 C08        -2.6340  -19.4320    0.0070 C.ar      1 Q1G         0.0031
     19 BR9        -4.3800  -20.1680   -0.0050 Br        1 Q1G        -0.0599
     20 C10        -2.2510  -18.6130    1.0660 C.ar      1 Q1G        -0.0610
     21 O13         1.1670  -17.7590    0.1440 O.3       1 Q1G        -0.3290
     22 O14         0.9860  -18.2150   -2.8980 O.2       1 Q1G        -0.1465
     23 O15         0.0880  -20.5780   -3.1050 O.2       1 Q1G        -0.1465
     24 N23         0.0690  -26.7340   -1.3560 N.1       1 Q1G        -0.3173
     25 C25         2.0460  -22.7620    1.0990 C.ar      1 Q1G        -0.0059
     26 H1          2.1240  -22.5078   -2.7663 H         1 Q1G         0.0600
     27 H2          3.0494  -24.2806   -3.7707 H         1 Q1G         0.0165
     28 H3          1.5866  -25.2608   -4.1256 H         1 Q1G         0.0165
     29 H4          4.2166  -26.4824   -3.9148 H         1 Q1G         0.0247
     30 H5          2.7273  -27.3845   -3.4733 H         1 Q1G         0.0247
     31 H6          3.4665  -26.9037   -1.1397 H         1 Q1G         0.0165
     32 H7          4.3839  -25.4470   -1.6526 H         1 Q1G         0.0165
     33 H8          2.0889  -24.8839    0.8129 H         1 Q1G         0.0738
     34 H9         -0.6636  -17.4208    1.9128 H         1 Q1G         0.0550
     35 H10         2.7741  -19.8851    1.1247 H         1 Q1G         0.2607
     36 H11         2.9001  -19.5801   -1.5464 H         1 Q1G         0.2144
     37 H12        -2.0541  -20.3452   -1.8637 H         1 Q1G         0.0635
     38 H13        -2.9471  -18.4046    1.8705 H         1 Q1G         0.0615
     39 H14         1.0783  -16.8135    0.1676 H         1 Q1G         0.2493
     40 H15         2.0268  -22.8344    2.1804 H         1 Q1G         0.0621
@<TRIPOS>BOND
     1    1   13 ar 
     2   16    1 1  
     3    1   17 ar 
     4    3    2 1  
     5    2    5 1  
     6    2    7 1  
     7    2    8 1  
     8    4    3 ar 
     9    3    9 ar 
    10   12    4 ar 
    11    5    6 1  
    12    7    6 1  
    13    8   24 3  
    14   25    9 ar 
    15   13   10 ar 
    16   10   20 ar 
    17   12   11 ar 
    18   11   14 1  
    19   11   25 ar 
    20   15   12 1  
    21   13   21 1  
    22   15   16 am 
    23   16   22 2  
    24   16   23 2  
    25   17   18 ar 
    26   18   19 1  
    27   18   20 ar 
    28    4   26 1  
    29    5   27 1  
    30    5   28 1  
    31    6   29 1  
    32    6   30 1  
    33    7   31 1  
    34    7   32 1  
    35    9   33 1  
    36   10   34 1  
    37   14   35 1  
    38   15   36 1  
    39   17   37 1  
    40   20   38 1  
    41   21   39 1  
    42   25   40 1  
@<TRIPOS>SUBSTRUCTURE
     1 Q1G         1

