### 
### Created by X-TOOL on Mon Aug  2 16:16:56 2021
### 

@<TRIPOS>MOLECULE
6udi_ligand
   96   101     1     0     0
SMALL
GAST_HUCK


@<TRIPOS>ATOM
      1 C4          9.3110    1.4800   96.5990 C.3       1 Q4S        -0.0683
      2 C3         10.7610    1.5050   97.0850 C.3       1 Q4S        -0.0460
      3 C2         11.6240    2.2310   96.0590 C.3       1 Q4S        -0.0047
      4 C13        11.0200    3.6020   95.7800 C.ar      1 Q4S        -0.0167
      5 C18        11.8740    4.5580   95.2440 C.ar      1 Q4S        -0.0155
      6 C17        11.4200    5.8390   94.9620 C.ar      1 Q4S         0.0648
      7 CL1        12.4980    7.0100   94.3080 Cl        1 Q4S        -0.0445
      8 C16        10.1080    6.1930   95.2200 C.ar      1 Q4S        -0.0253
      9 C15         9.2480    5.2340   95.7500 C.ar      1 Q4S        -0.0456
     10 C14         9.6810    3.9390   96.0310 C.ar      1 Q4S        -0.0422
     11 C1          8.6870    2.8960   96.6240 C.3       1 Q4S         0.0054
     12 C12         8.3720    3.2620   98.0790 C.3       1 Q4S         0.0075
     13 C11         7.3560    2.8340   95.8270 C.3       1 Q4S         0.0598
     14 O1          6.4370    3.8860   96.2440 O.3       1 Q4S        -0.3030
     15 C10         5.5940    3.4430   97.2050 C.ar      1 Q4S         0.1528
     16 C5          4.2630    3.7400   96.9180 C.ar      1 Q4S        -0.0027
     17 C6          3.2570    3.3540   97.8020 C.ar      1 Q4S        -0.0526
     18 C7          3.5970    2.6700   98.9670 C.ar      1 Q4S        -0.0409
     19 C8          4.9320    2.3650   99.2330 C.ar      1 Q4S        -0.0288
     20 C9          5.9600    2.7480   98.3620 C.ar      1 Q4S         0.1058
     21 N1          7.2420    2.5020   98.6510 N.pl3     1 Q4S        -0.3127
     22 C19         7.7030    1.6800   99.8010 C.3       1 Q4S         0.0283
     23 C20         7.5670    2.4560  101.1260 C.3       1 Q4S        -0.0149
     24 C31         8.7740    3.3950  101.3760 C.3       1 Q4S        -0.0475
     25 C30         8.9060    2.7740  102.7810 C.3       1 Q4S        -0.0456
     26 C21         8.0530    1.5930  102.3030 C.3       1 Q4S        -0.0034
     27 C22         6.9570    1.1850  103.3110 C.3       1 Q4S         0.0788
     28 O4          7.6810    0.4260  104.3070 O.3       1 Q4S        -0.3706
     29 C34         6.8990   -0.6580  104.8610 C.3       1 Q4S         0.0391
     30 C29         6.2200    2.1650  103.9910 C.2       1 Q4S        -0.0700
     31 C28         4.8390    2.0220  104.1340 C.2       1 Q4S        -0.0944
     32 C27         3.9980    3.0590  104.8770 C.3       1 Q4S        -0.0159
     33 C26         3.0060    3.7760  103.9620 C.3       1 Q4S         0.0399
     34 N2          1.8770    2.9040  103.6010 N.am      1 Q4S        -0.2754
     35 C32         0.8860    2.4340  104.5770 C.3       1 Q4S         0.0227
     36 C25         1.6700    2.4860  102.3460 C.2       1 Q4S         0.1701
     37 O3          0.7300    1.7540  102.0250 O.2       1 Q4S        -0.3980
     38 C24         2.6980    2.9500  101.2920 C.3       1 Q4S         0.0427
     39 C23         2.5180    2.2050   99.9580 C.3       1 Q4S         0.1354
     40 O2          1.1850    2.4230   99.4740 O.3       1 Q4S        -0.4286
     41 C33         2.6830    0.6780  100.0690 C.2       1 Q4S         0.2019
     42 O5          2.0860   -0.0540   99.2750 O.2       1 Q4S        -0.3683
     43 N3          3.5100    0.2400  101.0200 N.am      1 Q4S        -0.1486
     44 S1          3.8310   -1.3410  101.2180 S.o2      1 Q4S         0.1402
     45 O6          3.7220   -2.0900   99.9240 O.2       1 Q4S        -0.1304
     46 O7          5.2290   -1.4450  101.7150 O.2       1 Q4S        -0.1304
     47 N4          2.8350   -2.0150  102.3260 N.am      1 Q4S        -0.2241
     48 C36         2.9020   -1.2390  103.5760 C.3       1 Q4S         0.0195
     49 C35         1.4530   -2.0680  101.8250 C.3       1 Q4S         0.0195
     50 H1          8.7247    0.8182   97.2534 H         1 Q4S         0.0166
     51 H2          9.2845    1.0946   95.5691 H         1 Q4S         0.0166
     52 H3         11.1252    0.4743   97.2079 H         1 Q4S         0.0288
     53 H4         10.8162    2.0309   98.0495 H         1 Q4S         0.0288
     54 H5         11.6583    1.6472   95.1274 H         1 Q4S         0.0503
     55 H6         12.6435    2.3512   96.4542 H         1 Q4S         0.0503
     56 H7         12.9077    4.3002   95.0436 H         1 Q4S         0.0639
     57 H8          9.7559    7.1973   95.0137 H         1 Q4S         0.0653
     58 H9          8.2165    5.5013   95.9489 H         1 Q4S         0.0815
     59 H10         8.1272    4.3335   98.1224 H         1 Q4S         0.0407
     60 H11         9.2666    3.0652   98.6881 H         1 Q4S         0.0407
     61 H12         6.8818    1.8562   95.9976 H         1 Q4S         0.0525
     62 H13         7.5745    2.9536   94.7556 H         1 Q4S         0.0525
     63 H14         4.0102    4.2711   96.0075 H         1 Q4S         0.0633
     64 H15         2.2201    3.5838   97.5851 H         1 Q4S         0.0758
     65 H16         5.1799    1.8183  100.1357 H         1 Q4S         0.0656
     66 H17         8.7584    1.4096   99.6495 H         1 Q4S         0.0514
     67 H18         7.0944    0.7654   99.8560 H         1 Q4S         0.0514
     68 H19         6.5713    2.9115  101.2313 H         1 Q4S         0.0325
     69 H20         8.5261    4.4667  101.3728 H         1 Q4S         0.0269
     70 H21         9.6354    3.2159  100.7157 H         1 Q4S         0.0269
     71 H22         8.4478    3.3687  103.5850 H         1 Q4S         0.0270
     72 H23         9.9346    2.5058  103.0639 H         1 Q4S         0.0270
     73 H24         8.6276    0.7042  102.0034 H         1 Q4S         0.0349
     74 H25         6.2356    0.5433  102.7840 H         1 Q4S         0.0723
     75 H26         7.4983   -1.1973  105.6093 H         1 Q4S         0.0526
     76 H27         6.6088   -1.3494  104.0562 H         1 Q4S         0.0526
     77 H28         5.9954   -0.2515  105.3388 H         1 Q4S         0.0526
     78 H29         6.7242    3.0361  104.4068 H         1 Q4S         0.0475
     79 H30         4.3485    1.1494  103.7052 H         1 Q4S         0.0451
     80 H31         4.6718    3.8067  105.3207 H         1 Q4S         0.0408
     81 H32         3.4371    2.5512  105.6755 H         1 Q4S         0.0408
     82 H33         3.5263    4.0855  103.0436 H         1 Q4S         0.0542
     83 H34         2.6189    4.6650  104.4815 H         1 Q4S         0.0542
     84 H35         0.1443    1.7994  104.0698 H         1 Q4S         0.0486
     85 H36         0.3797    3.2986  105.0309 H         1 Q4S         0.0486
     86 H37         1.3915    1.8517  105.3615 H         1 Q4S         0.0486
     87 H38         3.7117    2.7584  101.6737 H         1 Q4S         0.0401
     88 H39         2.5692    4.0286  101.1185 H         1 Q4S         0.0401
     89 H40         0.5606    2.0950  100.1104 H         1 Q4S         0.1910
     90 H41         3.9449    0.9037  101.6286 H         1 Q4S         0.2153
     91 H42         2.2329   -1.6898  104.3237 H         1 Q4S         0.0442
     92 H43         2.5889   -0.2026  103.3814 H         1 Q4S         0.0442
     93 H44         3.9341   -1.2450  103.9565 H         1 Q4S         0.0442
     94 H45         0.8041   -2.5245  102.5869 H         1 Q4S         0.0442
     95 H46         1.4191   -2.6710  100.9056 H         1 Q4S         0.0442
     96 H47         1.1023   -1.0483  101.6079 H         1 Q4S         0.0442
@<TRIPOS>BOND
     1    1    2 1  
     2    1   11 1  
     3    2    3 1  
     4    3    4 1  
     5    4    5 ar 
     6    4   10 ar 
     7    5    6 ar 
     8    6    7 1  
     9    6    8 ar 
    10    8    9 ar 
    11    9   10 ar 
    12   10   11 1  
    13   11   12 1  
    14   11   13 1  
    15   12   21 1  
    16   13   14 1  
    17   14   15 1  
    18   15   16 ar 
    19   15   20 ar 
    20   16   17 ar 
    21   17   18 ar 
    22   18   19 ar 
    23   18   39 1  
    24   19   20 ar 
    25   20   21 1  
    26   21   22 1  
    27   22   23 1  
    28   23   24 1  
    29   23   26 1  
    30   24   25 1  
    31   25   26 1  
    32   26   27 1  
    33   27   28 1  
    34   27   30 1  
    35   28   29 1  
    36   30   31 2  
    37   31   32 1  
    38   32   33 1  
    39   33   34 1  
    40   34   35 1  
    41   34   36 am 
    42   36   37 2  
    43   36   38 1  
    44   38   39 1  
    45   39   40 1  
    46   39   41 1  
    47   41   42 2  
    48   41   43 am 
    49   43   44 am 
    50   44   45 2  
    51   44   46 2  
    52   44   47 am 
    53   47   48 1  
    54   47   49 1  
    55    1   50 1  
    56    1   51 1  
    57    2   52 1  
    58    2   53 1  
    59    3   54 1  
    60    3   55 1  
    61    5   56 1  
    62    8   57 1  
    63    9   58 1  
    64   12   59 1  
    65   12   60 1  
    66   13   61 1  
    67   13   62 1  
    68   16   63 1  
    69   17   64 1  
    70   19   65 1  
    71   22   66 1  
    72   22   67 1  
    73   23   68 1  
    74   24   69 1  
    75   24   70 1  
    76   25   71 1  
    77   25   72 1  
    78   26   73 1  
    79   27   74 1  
    80   29   75 1  
    81   29   76 1  
    82   29   77 1  
    83   30   78 1  
    84   31   79 1  
    85   32   80 1  
    86   32   81 1  
    87   33   82 1  
    88   33   83 1  
    89   35   84 1  
    90   35   85 1  
    91   35   86 1  
    92   38   87 1  
    93   38   88 1  
    94   40   89 1  
    95   43   90 1  
    96   48   91 1  
    97   48   92 1  
    98   48   93 1  
    99   49   94 1  
   100   49   95 1  
   101   49   96 1  
@<TRIPOS>SUBSTRUCTURE
     1 Q4S         1

