### 
### Created by X-TOOL on Mon Aug  2 16:16:57 2021
### 

@<TRIPOS>MOLECULE
6udt_ligand
   80    85     1     0     0
SMALL
GAST_HUCK


@<TRIPOS>ATOM
      1 C4          9.3980    1.4860   96.6070 C.3       1 Q4V        -0.0683
      2 C3         10.8620    1.4880   97.0290 C.3       1 Q4V        -0.0460
      3 C2         11.6860    2.2440   96.0070 C.3       1 Q4V        -0.0047
      4 C13        11.1010    3.6160   95.7310 C.ar      1 Q4V        -0.0167
      5 C18        11.9440    4.5750   95.1910 C.ar      1 Q4V        -0.0155
      6 C17        11.4780    5.8500   94.9280 C.ar      1 Q4V         0.0648
      7 CL1        12.5700    6.9900   94.2670 Cl        1 Q4V        -0.0445
      8 C16        10.1670    6.1870   95.1790 C.ar      1 Q4V        -0.0253
      9 C15         9.3260    5.2380   95.7240 C.ar      1 Q4V        -0.0456
     10 C14         9.7720    3.9540   95.9960 C.ar      1 Q4V        -0.0422
     11 C1          8.7980    2.9090   96.5910 C.3       1 Q4V         0.0053
     12 C12         8.4230    3.2870   98.0190 C.3       1 Q4V         0.0074
     13 C11         7.4960    2.8730   95.7780 C.3       1 Q4V         0.0595
     14 O1          6.5630    3.9220   96.1960 O.3       1 Q4V        -0.3036
     15 C10         5.6860    3.4910   97.1580 C.ar      1 Q4V         0.1519
     16 C5          4.3530    3.8190   96.9150 C.ar      1 Q4V        -0.0034
     17 C6          3.3490    3.4150   97.7970 C.ar      1 Q4V        -0.0531
     18 C7          3.6940    2.6970   98.9340 C.ar      1 Q4V        -0.0438
     19 C8          5.0310    2.3780   99.1660 C.ar      1 Q4V        -0.0290
     20 C9          6.0390    2.7660   98.2870 C.ar      1 Q4V         0.1052
     21 N1          7.3120    2.5010   98.5590 N.pl3     1 Q4V        -0.3129
     22 C19         7.7140    1.6520   99.7150 C.3       1 Q4V         0.0282
     23 C20         7.6550    2.4190  101.0680 C.3       1 Q4V        -0.0149
     24 C31         8.8890    3.2990  101.3600 C.3       1 Q4V        -0.0475
     25 C30         8.8990    2.7110  102.7810 C.3       1 Q4V        -0.0457
     26 C21         8.1240    1.5150  102.2270 C.3       1 Q4V        -0.0037
     27 C22         7.0090    0.9920  103.1370 C.3       1 Q4V         0.0757
     28 O4          7.6400    0.1040  104.0930 O.3       1 Q4V        -0.3826
     29 C29         6.2730    2.0800  103.9200 C.2       1 Q4V        -0.0702
     30 C28         4.8940    1.9790  104.0530 C.2       1 Q4V        -0.0944
     31 C27         4.0930    3.0250  104.8250 C.3       1 Q4V        -0.0159
     32 C26         3.1100    3.7390  103.9150 C.3       1 Q4V         0.0399
     33 N2          1.9980    2.8460  103.5750 N.am      1 Q4V        -0.2754
     34 C32         1.0230    2.3930  104.5800 C.3       1 Q4V         0.0227
     35 C25         1.8100    2.3740  102.3400 C.2       1 Q4V         0.1703
     36 O3          0.8990    1.5970  102.0240 O.2       1 Q4V        -0.3980
     37 C24         2.8500    2.8450  101.2930 C.3       1 Q4V         0.0401
     38 C23         2.6350    2.2050   99.9350 C.3       1 Q4V         0.0992
     39 C33         2.8060    0.6780  100.0520 C.2       1 Q4V         0.0327
     40 O6          3.5480    0.2720  100.9760 O.co2     1 Q4V        -0.5635
     41 O5          2.2320   -0.0560   99.2170 O.co2     1 Q4V        -0.5635
     42 O2          1.3270    2.5120   99.4740 O.3       1 Q4V        -0.4295
     43 H1          8.8256    0.8673   97.3138 H         1 Q4V         0.0166
     44 H2          9.3201    1.0565   95.5973 H         1 Q4V         0.0166
     45 H3         11.2246    0.4517   97.0969 H         1 Q4V         0.0288
     46 H4         10.9592    1.9756   98.0102 H         1 Q4V         0.0288
     47 H5         11.7087    1.6693   95.0694 H         1 Q4V         0.0503
     48 H6         12.7105    2.3620   96.3896 H         1 Q4V         0.0503
     49 H7         12.9757    4.3235   94.9734 H         1 Q4V         0.0639
     50 H8          9.8011    7.1819   94.9522 H         1 Q4V         0.0653
     51 H9          8.2977    5.5016   95.9434 H         1 Q4V         0.0815
     52 H10         8.1377    4.3492   98.0344 H         1 Q4V         0.0406
     53 H11         9.3023    3.1341   98.6619 H         1 Q4V         0.0406
     54 H12         7.0159    1.8933   95.9183 H         1 Q4V         0.0525
     55 H13         7.7368    3.0144   94.7141 H         1 Q4V         0.0525
     56 H14         4.0936    4.3932   96.0329 H         1 Q4V         0.0630
     57 H15         2.3121    3.6591   97.5963 H         1 Q4V         0.0755
     58 H16         5.2928    1.8134  100.0535 H         1 Q4V         0.0657
     59 H17         8.7439    1.3009   99.5534 H         1 Q4V         0.0513
     60 H18         7.0362    0.7874   99.7700 H         1 Q4V         0.0513
     61 H19         6.6810    2.9134  101.1977 H         1 Q4V         0.0325
     62 H20         8.7000    4.3817  101.3142 H         1 Q4V         0.0269
     63 H21         9.7770    3.0560  100.7581 H         1 Q4V         0.0269
     64 H22         8.3510    3.3059  103.5265 H         1 Q4V         0.0270
     65 H23         9.8993    2.4683  103.1689 H         1 Q4V         0.0270
     66 H24         8.7575    0.6723  101.9133 H         1 Q4V         0.0349
     67 H25         6.2784    0.4400  102.5275 H         1 Q4V         0.0721
     68 H26         6.9812   -0.2458  104.6814 H         1 Q4V         0.2126
     69 H27         6.8166    2.9135  104.3624 H         1 Q4V         0.0475
     70 H28         4.3740    1.1374  103.5978 H         1 Q4V         0.0451
     71 H29         4.7859    3.7630  105.2553 H         1 Q4V         0.0408
     72 H30         3.5380    2.5278  105.6341 H         1 Q4V         0.0408
     73 H31         3.6250    4.0461  102.9928 H         1 Q4V         0.0542
     74 H32         2.7179    4.6286  104.4297 H         1 Q4V         0.0542
     75 H33         0.2827    1.7347  104.1019 H         1 Q4V         0.0486
     76 H34         0.5120    3.2649  105.0143 H         1 Q4V         0.0486
     77 H35         1.5455    1.8407  105.3749 H         1 Q4V         0.0486
     78 H36         3.8561    2.5824  101.6518 H         1 Q4V         0.0404
     79 H37         2.7727    3.9369  101.1849 H         1 Q4V         0.0404
     80 H38         0.6878    2.1743  100.0904 H         1 Q4V         0.1916
@<TRIPOS>BOND
     1    1    2 1  
     2    1   11 1  
     3    2    3 1  
     4    3    4 1  
     5    4    5 ar 
     6    4   10 ar 
     7    5    6 ar 
     8    6    7 1  
     9    6    8 ar 
    10    8    9 ar 
    11    9   10 ar 
    12   10   11 1  
    13   11   12 1  
    14   11   13 1  
    15   12   21 1  
    16   13   14 1  
    17   14   15 1  
    18   15   16 ar 
    19   15   20 ar 
    20   16   17 ar 
    21   17   18 ar 
    22   18   19 ar 
    23   18   38 1  
    24   19   20 ar 
    25   20   21 1  
    26   21   22 1  
    27   22   23 1  
    28   23   24 1  
    29   23   26 1  
    30   24   25 1  
    31   25   26 1  
    32   26   27 1  
    33   27   28 1  
    34   27   29 1  
    35   29   30 2  
    36   30   31 1  
    37   31   32 1  
    38   32   33 1  
    39   33   34 1  
    40   33   35 am 
    41   35   36 2  
    42   35   37 1  
    43   37   38 1  
    44   38   39 1  
    45   38   42 1  
    46   39   40 ar 
    47   39   41 ar 
    48    1   43 1  
    49    1   44 1  
    50    2   45 1  
    51    2   46 1  
    52    3   47 1  
    53    3   48 1  
    54    5   49 1  
    55    8   50 1  
    56    9   51 1  
    57   12   52 1  
    58   12   53 1  
    59   13   54 1  
    60   13   55 1  
    61   16   56 1  
    62   17   57 1  
    63   19   58 1  
    64   22   59 1  
    65   22   60 1  
    66   23   61 1  
    67   24   62 1  
    68   24   63 1  
    69   25   64 1  
    70   25   65 1  
    71   26   66 1  
    72   27   67 1  
    73   28   68 1  
    74   29   69 1  
    75   30   70 1  
    76   31   71 1  
    77   31   72 1  
    78   32   73 1  
    79   32   74 1  
    80   34   75 1  
    81   34   76 1  
    82   34   77 1  
    83   37   78 1  
    84   37   79 1  
    85   42   80 1  
@<TRIPOS>SUBSTRUCTURE
     1 Q4V         1

