### 
### Created by X-TOOL on Mon Aug  2 16:16:57 2021
### 

@<TRIPOS>MOLECULE
6udu_ligand
   72    76     1     0     0
SMALL
GAST_HUCK


@<TRIPOS>ATOM
      1 C9          9.3530    1.5460   96.8290 C.3       1 Q4Y        -0.0683
      2 C8         10.8290    1.5780   97.2730 C.3       1 Q4Y        -0.0460
      3 C7         11.6770    2.3510   96.2780 C.3       1 Q4Y        -0.0047
      4 C4         11.0340    3.6880   95.9650 C.ar      1 Q4Y        -0.0167
      5 C3         11.8720    4.6430   95.4060 C.ar      1 Q4Y        -0.0155
      6 C2         11.4020    5.8980   95.0660 C.ar      1 Q4Y         0.0648
      7 CL1        12.4940    7.0460   94.3890 Cl        1 Q4Y        -0.0445
      8 C1         10.0800    6.2440   95.3080 C.ar      1 Q4Y        -0.0253
      9 C6          9.2390    5.2890   95.8700 C.ar      1 Q4Y        -0.0456
     10 C5          9.6940    4.0090   96.1980 C.ar      1 Q4Y        -0.0422
     11 C10         8.7230    2.9690   96.8170 C.3       1 Q4Y         0.0053
     12 C14         8.3950    3.3540   98.2450 C.3       1 Q4Y         0.0074
     13 C11         7.3930    2.9370   96.0150 C.3       1 Q4Y         0.0595
     14 O1          6.4160    3.9110   96.5020 O.3       1 Q4Y        -0.3036
     15 C12         5.5870    3.3800   97.4420 C.ar      1 Q4Y         0.1519
     16 C15         4.2210    3.5870   97.1960 C.ar      1 Q4Y        -0.0034
     17 C16         3.2670    3.0770   98.0780 C.ar      1 Q4Y        -0.0531
     18 C17         3.6770    2.3650   99.2110 C.ar      1 Q4Y        -0.0438
     19 C18         5.0440    2.1660   99.4320 C.ar      1 Q4Y        -0.0290
     20 C13         6.0150    2.6630   98.5480 C.ar      1 Q4Y         0.1052
     21 N1          7.3120    2.5240   98.8150 N.pl3     1 Q4Y        -0.3132
     22 C21         7.7640    1.7660  100.0040 C.3       1 Q4Y         0.0250
     23 C30         7.7280    2.6610  101.2550 C.3       1 Q4Y        -0.0320
     24 C25         8.0360    1.8030  102.4950 C.3       1 Q4Y        -0.0447
     25 C26         7.4430    2.4260  103.7620 C.3       1 Q4Y        -0.0363
     26 C27         6.0820    2.1640  103.8660 C.2       1 Q4Y        -0.0968
     27 C29         5.1700    3.1750  104.1630 C.2       1 Q4Y        -0.0766
     28 C28         3.8060    2.8640  104.2390 C.3       1 Q4Y         0.0505
     29 N2          3.0410    3.7670  103.3580 N.am      1 Q4Y        -0.2692
     30 C24         2.6850    5.1340  103.7680 C.3       1 Q4Y         0.0244
     31 C23         2.6160    3.4080  102.1230 C.2       1 Q4Y         0.1718
     32 O5          1.9570    4.1470  101.3850 O.2       1 Q4Y        -0.3978
     33 C22         2.9590    1.9850  101.6650 C.3       1 Q4Y         0.0402
     34 C19         2.6570    1.7150  100.1970 C.3       1 Q4Y         0.0992
     35 C20         2.7420    0.1790   99.9540 C.2       1 Q4Y         0.0327
     36 O4          1.9820   -0.2990   99.0860 O.co2     1 Q4Y        -0.5635
     37 O3          3.5950   -0.4950  100.5930 O.co2     1 Q4Y        -0.5635
     38 O2          1.3090    2.1270   99.8960 O.3       1 Q4Y        -0.4295
     39 H1          8.7853    0.9110   97.5251 H         1 Q4Y         0.0166
     40 H2          9.2950    1.1222   95.8156 H         1 Q4Y         0.0166
     41 H3         11.2064    0.5472   97.3436 H         1 Q4Y         0.0288
     42 H4         10.8984    2.0623   98.2582 H         1 Q4Y         0.0288
     43 H5         11.7704    1.7673   95.3503 H         1 Q4Y         0.0503
     44 H6         12.6757    2.5203   96.7068 H         1 Q4Y         0.0503
     45 H7         12.9142    4.4003   95.2328 H         1 Q4Y         0.0639
     46 H8          9.7118    7.2342   95.0650 H         1 Q4Y         0.0653
     47 H9          8.2026    5.5446   96.0586 H         1 Q4Y         0.0815
     48 H10         8.0803    4.4079   98.2640 H         1 Q4Y         0.0406
     49 H11         9.2977    3.2297   98.8612 H         1 Q4Y         0.0406
     50 H12         6.9570    1.9304   96.0967 H         1 Q4Y         0.0525
     51 H13         7.6130    3.1568   94.9599 H         1 Q4Y         0.0525
     52 H14         3.9065    4.1433   96.3204 H         1 Q4Y         0.0630
     53 H15         2.2115    3.2320   97.8860 H         1 Q4Y         0.0755
     54 H16         5.3619    1.6136  100.3088 H         1 Q4Y         0.0657
     55 H17         8.7930    1.4136   99.8398 H         1 Q4Y         0.0511
     56 H18         7.1006    0.9021  100.1571 H         1 Q4Y         0.0511
     57 H19         6.7298    3.1117  101.3573 H         1 Q4Y         0.0286
     58 H20         8.4817    3.4567  101.1609 H         1 Q4Y         0.0286
     59 H21         9.1266    1.7209  102.6124 H         1 Q4Y         0.0285
     60 H22         7.6060    0.8005  102.3533 H         1 Q4Y         0.0285
     61 H23         7.5966    3.5148  103.7313 H         1 Q4Y         0.0388
     62 H24         7.9562    2.0079  104.6405 H         1 Q4Y         0.0388
     63 H25         5.7210    1.1481  103.7123 H         1 Q4Y         0.0451
     64 H26         5.5133    4.1942  104.3339 H         1 Q4Y         0.0470
     65 H27         3.4603    2.9855  105.2762 H         1 Q4Y         0.0647
     66 H28         3.6498    1.8229  103.9200 H         1 Q4Y         0.0647
     67 H29         2.1191    5.6231  102.9614 H         1 Q4Y         0.0488
     68 H30         3.6020    5.7063  103.9716 H         1 Q4Y         0.0488
     69 H31         2.0675    5.0950  104.6775 H         1 Q4Y         0.0488
     70 H32         2.3775    1.2766  102.2733 H         1 Q4Y         0.0404
     71 H33         4.0330    1.8173  101.8333 H         1 Q4Y         0.0404
     72 H34         1.2162    3.0559  100.0720 H         1 Q4Y         0.1916
@<TRIPOS>BOND
     1    1    2 1  
     2    1   11 1  
     3    2    3 1  
     4    3    4 1  
     5    4    5 ar 
     6    4   10 ar 
     7    5    6 ar 
     8    6    7 1  
     9    6    8 ar 
    10    8    9 ar 
    11    9   10 ar 
    12   10   11 1  
    13   11   12 1  
    14   11   13 1  
    15   12   21 1  
    16   13   14 1  
    17   14   15 1  
    18   15   16 ar 
    19   15   20 ar 
    20   16   17 ar 
    21   17   18 ar 
    22   18   19 ar 
    23   18   34 1  
    24   19   20 ar 
    25   20   21 1  
    26   21   22 1  
    27   22   23 1  
    28   23   24 1  
    29   24   25 1  
    30   25   26 1  
    31   26   27 2  
    32   27   28 1  
    33   28   29 1  
    34   29   30 1  
    35   29   31 am 
    36   31   32 2  
    37   31   33 1  
    38   33   34 1  
    39   34   35 1  
    40   34   38 1  
    41   35   36 ar 
    42   35   37 ar 
    43    1   39 1  
    44    1   40 1  
    45    2   41 1  
    46    2   42 1  
    47    3   43 1  
    48    3   44 1  
    49    5   45 1  
    50    8   46 1  
    51    9   47 1  
    52   12   48 1  
    53   12   49 1  
    54   13   50 1  
    55   13   51 1  
    56   16   52 1  
    57   17   53 1  
    58   19   54 1  
    59   22   55 1  
    60   22   56 1  
    61   23   57 1  
    62   23   58 1  
    63   24   59 1  
    64   24   60 1  
    65   25   61 1  
    66   25   62 1  
    67   26   63 1  
    68   27   64 1  
    69   28   65 1  
    70   28   66 1  
    71   30   67 1  
    72   30   68 1  
    73   30   69 1  
    74   33   70 1  
    75   33   71 1  
    76   38   72 1  
@<TRIPOS>SUBSTRUCTURE
     1 Q4Y         1

