### 
### Created by X-TOOL on Mon Aug  2 16:16:57 2021
### 

@<TRIPOS>MOLECULE
6udv_ligand
   80    85     1     0     0
SMALL
GAST_HUCK


@<TRIPOS>ATOM
      1 C14         9.2110    1.3970   96.9310 C.3       1 Q51        -0.0684
      2 C13        10.6660    1.3910   97.4080 C.3       1 Q51        -0.0460
      3 C12        11.5310    2.1640   96.4230 C.3       1 Q51        -0.0047
      4 C11        10.9380    3.5330   96.1430 C.ar      1 Q51        -0.0167
      5 C18        11.7780    4.5120   95.6370 C.ar      1 Q51        -0.0155
      6 C17        11.3160    5.7870   95.3660 C.ar      1 Q51         0.0648
      7 CL1        12.4150    6.9410   94.7290 Cl        1 Q51        -0.0445
      8 C16         9.9860    6.0990   95.5900 C.ar      1 Q51        -0.0253
      9 C15         9.1450    5.1300   96.0890 C.ar      1 Q51        -0.0456
     10 C10         9.5870    3.8530   96.3690 C.ar      1 Q51        -0.0424
     11 C8          8.5920    2.8200   96.9270 C.3       1 Q51         0.0035
     12 C7          8.1560    3.2080   98.3570 C.3       1 Q51         0.0061
     13 C9          7.3240    2.7660   96.0630 C.3       1 Q51         0.0499
     14 O1          6.3770    3.7870   96.4500 O.3       1 Q51        -0.3293
     15 C2          5.4740    3.3970   97.4090 C.ar      1 Q51         0.1136
     16 C3          4.1540    3.7780   97.1460 C.ar      1 Q51        -0.0378
     17 C4          3.1360    3.4220   98.0160 C.ar      1 Q51        -0.0636
     18 C5          3.4080    2.6680   99.1450 C.ar      1 Q51         0.0281
     19 C6          4.7370    2.2950   99.4010 C.ar      1 Q51        -0.0327
     20 C1          5.7930    2.6630   98.5570 C.ar      1 Q51         0.0759
     21 N1          7.0920    2.2980   98.8160 N.pl3     1 Q51        -0.3196
     22 C20         7.4180    1.5390  100.0770 C.3       1 Q51         0.0270
     23 C21         7.3090    2.3560  101.3900 C.3       1 Q51        -0.0150
     24 C24         8.5070    3.2500  101.7390 C.3       1 Q51        -0.0475
     25 C23         8.3900    2.7400  103.1930 C.3       1 Q51        -0.0457
     26 C22         7.6970    1.4990  102.6140 C.3       1 Q51        -0.0037
     27 C25         6.4990    0.9400  103.4200 C.3       1 Q51         0.0757
     28 O3          7.0050    0.3570  104.6340 O.3       1 Q51        -0.3826
     29 C26         5.3890    1.9710  103.7000 C.2       1 Q51        -0.0703
     30 C27         5.1340    2.5520  104.9320 C.2       1 Q51        -0.0960
     31 C30         4.0070    3.5870  105.1310 C.3       1 Q51        -0.0320
     32 C29         2.9320    3.5720  104.0320 C.3       1 Q51        -0.0132
     33 C31         2.0260    4.8200  104.1210 C.3       1 Q51        -0.0590
     34 C28         2.1270    2.2670  104.0590 C.3       1 Q51         0.1014
     35 C32         1.1170    2.2330  105.1910 C.3       1 Q51        -0.0403
     36 S1          1.3340    1.9750  102.4380 S.o2      1 Q51         0.0639
     37 O4          0.7900    0.5910  102.3640 O.2       1 Q51        -0.1505
     38 O5          0.2810    2.9840  102.0420 O.2       1 Q51        -0.1505
     39 N2          2.5160    2.2360  101.3490 N.am      1 Q51        -0.1592
     40 C19         2.2380    2.3070  100.0580 C.2       1 Q51         0.2134
     41 O2          1.1300    2.0420   99.5640 O.2       1 Q51        -0.3882
     42 H1          8.6179    0.7564   97.6002 H         1 Q51         0.0166
     43 H2          9.1734    0.9933   95.9085 H         1 Q51         0.0166
     44 H3         11.0250    0.3534   97.4741 H         1 Q51         0.0288
     45 H4         10.7280    1.8643   98.3990 H         1 Q51         0.0288
     46 H5         11.5966    1.6000   95.4809 H         1 Q51         0.0503
     47 H6         12.5383    2.2874   96.8474 H         1 Q51         0.0503
     48 H7         12.8187    4.2735   95.4497 H         1 Q51         0.0639
     49 H8          9.6116    7.0934   95.3753 H         1 Q51         0.0653
     50 H9          8.1048    5.3774   96.2673 H         1 Q51         0.0815
     51 H10         7.7784    4.2411   98.3565 H         1 Q51         0.0404
     52 H11         9.0188    3.1332   99.0353 H         1 Q51         0.0404
     53 H12         6.8532    1.7787   96.1800 H         1 Q51         0.0505
     54 H13         7.6022    2.9171   95.0096 H         1 Q51         0.0505
     55 H14         3.9263    4.3548   96.2569 H         1 Q51         0.0517
     56 H15         2.1189    3.7362   97.8112 H         1 Q51         0.0533
     57 H16         4.9536    1.7018  100.2821 H         1 Q51         0.0528
     58 H17         8.4500    1.1676   99.9928 H         1 Q51         0.0512
     59 H18         6.7263    0.6867  100.1489 H         1 Q51         0.0512
     60 H19         6.3312    2.8569  101.4443 H         1 Q51         0.0324
     61 H20         8.3245    4.3278  101.6163 H         1 Q51         0.0269
     62 H21         9.4445    2.9768  101.2326 H         1 Q51         0.0269
     63 H22         7.7581    3.3571  103.8486 H         1 Q51         0.0270
     64 H23         9.3507    2.5415  103.6906 H         1 Q51         0.0270
     65 H24         8.3857    0.6723  102.3853 H         1 Q51         0.0349
     66 H25         6.0437    0.1371  102.8217 H         1 Q51         0.0721
     67 H26         6.2819    0.0083  105.1419 H         1 Q51         0.2126
     68 H27         4.7555    2.2662  102.8648 H         1 Q51         0.0475
     69 H28         5.7479    2.2694  105.7860 H         1 Q51         0.0451
     70 H29         4.4601    4.5890  105.1558 H         1 Q51         0.0391
     71 H30         3.5173    3.3820  106.0944 H         1 Q51         0.0391
     72 H31         3.4509    3.6144  103.0630 H         1 Q51         0.0337
     73 H32         1.2688    4.7810  103.3240 H         1 Q51         0.0234
     74 H33         2.6376    5.7264  104.0016 H         1 Q51         0.0234
     75 H34         1.5263    4.8413  105.1007 H         1 Q51         0.0234
     76 H35         2.8375    1.4456  104.2335 H         1 Q51         0.0560
     77 H36         1.6313    2.4123  106.1467 H         1 Q51         0.0249
     78 H37         0.6282    1.2479  105.2168 H         1 Q51         0.0249
     79 H38         0.3595    3.0142  105.0301 H         1 Q51         0.0249
     80 H39         3.4606    2.3436  101.6591 H         1 Q51         0.2131
@<TRIPOS>BOND
     1    1    2 1  
     2    1   11 1  
     3    2    3 1  
     4    3    4 1  
     5    4    5 ar 
     6    4   10 ar 
     7    5    6 ar 
     8    6    7 1  
     9    6    8 ar 
    10    8    9 ar 
    11    9   10 ar 
    12   10   11 1  
    13   11   12 1  
    14   11   13 1  
    15   12   21 1  
    16   13   14 1  
    17   14   15 1  
    18   15   16 ar 
    19   15   20 ar 
    20   16   17 ar 
    21   17   18 ar 
    22   18   19 ar 
    23   18   40 1  
    24   19   20 ar 
    25   20   21 1  
    26   21   22 1  
    27   22   23 1  
    28   23   24 1  
    29   23   26 1  
    30   24   25 1  
    31   25   26 1  
    32   26   27 1  
    33   27   28 1  
    34   27   29 1  
    35   29   30 2  
    36   30   31 1  
    37   31   32 1  
    38   32   33 1  
    39   32   34 1  
    40   34   35 1  
    41   34   36 1  
    42   36   37 2  
    43   36   38 2  
    44   36   39 am 
    45   39   40 am 
    46   40   41 2  
    47    1   42 1  
    48    1   43 1  
    49    2   44 1  
    50    2   45 1  
    51    3   46 1  
    52    3   47 1  
    53    5   48 1  
    54    8   49 1  
    55    9   50 1  
    56   12   51 1  
    57   12   52 1  
    58   13   53 1  
    59   13   54 1  
    60   16   55 1  
    61   17   56 1  
    62   19   57 1  
    63   22   58 1  
    64   22   59 1  
    65   23   60 1  
    66   24   61 1  
    67   24   62 1  
    68   25   63 1  
    69   25   64 1  
    70   26   65 1  
    71   27   66 1  
    72   28   67 1  
    73   29   68 1  
    74   30   69 1  
    75   31   70 1  
    76   31   71 1  
    77   32   72 1  
    78   33   73 1  
    79   33   74 1  
    80   33   75 1  
    81   34   76 1  
    82   35   77 1  
    83   35   78 1  
    84   35   79 1  
    85   39   80 1  
@<TRIPOS>SUBSTRUCTURE
     1 Q51         1

