### 
### Created by X-TOOL on Mon Aug  2 16:16:57 2021
### 

@<TRIPOS>MOLECULE
6udx_ligand
   58    62     1     0     0
SMALL
GAST_HUCK


@<TRIPOS>ATOM
      1 C1        -12.1040   10.5390  -15.9880 C.ar      1 Q57        -0.0253
      2 C2        -10.7750   10.8020  -16.3460 C.ar      1 Q57         0.0648
      3 C3        -10.2900   10.5720  -17.6220 C.ar      1 Q57        -0.0155
      4 O4        -20.8110    6.0730  -20.0600 O.3       1 Q57        -0.3674
      5 C7        -19.6210    6.1410  -22.0090 C.2       1 Q57         0.0737
      6 C8        -18.5530    6.8660  -19.9350 C.ar      1 Q57        -0.0245
      7 C9        -18.9320    8.0270  -19.2180 C.ar      1 Q57        -0.0782
      8 C10       -17.9420    8.9130  -18.7370 C.ar      1 Q57        -0.0506
      9 C11       -14.7700   10.0670  -19.4950 C.3       1 Q57         0.0471
     10 C12       -13.7690    7.7780  -18.9810 C.3       1 Q57         0.0060
     11 C13       -16.1600    7.4800  -19.6580 C.ar      1 Q57         0.0636
     12 C14       -16.5710    8.6630  -18.9500 C.ar      1 Q57         0.1008
     13 C15       -13.4710    9.2130  -19.3750 C.3       1 Q57         0.0031
     14 C16       -19.5190    5.8440  -20.5290 C.3       1 Q57         0.1331
     15 C19       -14.5860    4.6550  -19.9580 C.3       1 Q57        -0.0218
     16 C20       -14.1720    3.4070  -20.7740 C.3       1 Q57        -0.0484
     17 C21       -13.5650    2.8180  -19.4670 C.3       1 Q57        -0.0524
     18 C22       -12.8500    9.1540  -20.7770 C.3       1 Q57        -0.0684
     19 C24       -11.3450    8.7990  -20.7640 C.3       1 Q57        -0.0460
     20 N1        -14.8120    7.1420  -19.8040 N.pl3     1 Q57        -0.3216
     21 O1        -15.6640    9.6180  -18.5040 O.3       1 Q57        -0.3373
     22 C25       -17.1820    6.6250  -20.1340 C.ar      1 Q57        -0.0468
     23 C17       -14.3730    5.9890  -20.6550 C.3       1 Q57         0.0264
     24 C18       -13.5340    4.2530  -18.8850 C.3       1 Q57        -0.0484
     25 C4        -11.1600   10.0600  -18.5800 C.ar      1 Q57        -0.0167
     26 C5        -12.5300    9.7700  -18.2820 C.ar      1 Q57        -0.0424
     27 C6        -12.9870   10.0140  -16.9610 C.ar      1 Q57        -0.0456
     28 CL1        -9.6720   11.4270  -15.1940 Cl        1 Q57        -0.0445
     29 C23       -10.5480    9.8220  -19.9250 C.3       1 Q57        -0.0047
     30 O2        -20.3520    6.9590  -22.4450 O.co2     1 Q57        -0.5642
     31 O3        -18.8070    5.3760  -22.8170 O.co2     1 Q57        -0.5642
     32 H1        -12.4507   10.7350  -14.9798 H         1 Q57         0.0653
     33 H2         -9.2565   10.7858  -17.8693 H         1 Q57         0.0639
     34 H3        -20.8410    5.9084  -19.1249 H         1 Q57         0.2152
     35 H4        -19.9805    8.2357  -19.0384 H         1 Q57         0.0422
     36 H5        -18.2423    9.8018  -18.1939 H         1 Q57         0.0486
     37 H6        -15.2163    9.9341  -20.4916 H         1 Q57         0.0500
     38 H7        -14.5366   11.1302  -19.3365 H         1 Q57         0.0500
     39 H8        -14.1000    7.7675  -17.9321 H         1 Q57         0.0405
     40 H9        -12.8436    7.1916  -19.0793 H         1 Q57         0.0405
     41 H10       -19.1851    4.8157  -20.3264 H         1 Q57         0.0902
     42 H11       -15.6217    4.6185  -19.5893 H         1 Q57         0.0320
     43 H12       -13.4383    3.6044  -21.5694 H         1 Q57         0.0269
     44 H13       -15.0138    2.8312  -21.1862 H         1 Q57         0.0269
     45 H14       -12.5745    2.3564  -19.5929 H         1 Q57         0.0265
     46 H15       -14.2277    2.1234  -18.9301 H         1 Q57         0.0265
     47 H16       -12.9728   10.1370  -21.2551 H         1 Q57         0.0166
     48 H17       -13.3836    8.3917  -21.3636 H         1 Q57         0.0166
     49 H18       -10.9642    8.8041  -21.7960 H         1 Q57         0.0288
     50 H19       -11.2145    7.7967  -20.3299 H         1 Q57         0.0288
     51 H20       -16.8923    5.7357  -20.6820 H         1 Q57         0.0425
     52 H21       -14.9513    5.9975  -21.5906 H         1 Q57         0.0512
     53 H22       -13.3032    6.1035  -20.8841 H         1 Q57         0.0512
     54 H23       -13.8880    4.3321  -17.8465 H         1 Q57         0.0269
     55 H24       -12.5648    4.7641  -18.9820 H         1 Q57         0.0269
     56 H25       -14.0157    9.7975  -16.6965 H         1 Q57         0.0815
     57 H26       -10.5141   10.7763  -20.4711 H         1 Q57         0.0503
     58 H27        -9.5249    9.4430  -19.7851 H         1 Q57         0.0503
@<TRIPOS>BOND
     1    2    1 ar 
     2    1   27 ar 
     3    3    2 ar 
     4    2   28 1  
     5   25    3 ar 
     6   14    4 1  
     7   14    5 1  
     8    5   30 ar 
     9    5   31 ar 
    10    6    7 ar 
    11    6   14 1  
    12   22    6 ar 
    13    8    7 ar 
    14   12    8 ar 
    15   13    9 1  
    16    9   21 1  
    17   13   10 1  
    18   10   20 1  
    19   11   12 ar 
    20   20   11 1  
    21   11   22 ar 
    22   21   12 1  
    23   13   18 1  
    24   26   13 1  
    25   15   16 1  
    26   23   15 1  
    27   15   24 1  
    28   16   17 1  
    29   24   17 1  
    30   18   19 1  
    31   19   29 1  
    32   20   23 1  
    33   25   26 ar 
    34   25   29 1  
    35   26   27 ar 
    36    1   32 1  
    37    3   33 1  
    38    4   34 1  
    39    7   35 1  
    40    8   36 1  
    41    9   37 1  
    42    9   38 1  
    43   10   39 1  
    44   10   40 1  
    45   14   41 1  
    46   15   42 1  
    47   16   43 1  
    48   16   44 1  
    49   17   45 1  
    50   17   46 1  
    51   18   47 1  
    52   18   48 1  
    53   19   49 1  
    54   19   50 1  
    55   22   51 1  
    56   23   52 1  
    57   23   53 1  
    58   24   54 1  
    59   24   55 1  
    60   27   56 1  
    61   29   57 1  
    62   29   58 1  
@<TRIPOS>SUBSTRUCTURE
     1 Q57         1

