### 
### Created by X-TOOL on Mon Aug  2 16:16:57 2021
### 

@<TRIPOS>MOLECULE
6udy_ligand
   54    58     1     0     0
SMALL
GAST_HUCK


@<TRIPOS>ATOM
      1 C1        -12.0770   10.4930  -15.9690 C.ar      1 Q54        -0.0253
      2 C2        -10.7690   10.7950  -16.3440 C.ar      1 Q54         0.0648
      3 C3        -10.2880   10.6010  -17.6270 C.ar      1 Q54        -0.0155
      4 C7        -17.2720    6.6340  -19.9460 C.ar      1 Q54        -0.0384
      5 C8        -18.5990    6.8990  -19.7210 C.ar      1 Q54        -0.0130
      6 C9        -18.9900    8.1040  -19.0370 C.ar      1 Q54        -0.0696
      7 C10       -17.9890    8.9830  -18.6090 C.ar      1 Q54        -0.0403
      8 C11       -14.7700    9.9780  -19.4360 C.3       1 Q54         0.0493
      9 C12       -13.8130    7.7050  -18.8920 C.3       1 Q54         0.0060
     10 C13       -16.2300    7.5000  -19.5250 C.ar      1 Q54         0.0736
     11 C14       -16.6180    8.6870  -18.8540 C.ar      1 Q54         0.1112
     12 C15       -13.4660    9.1360  -19.3430 C.3       1 Q54         0.0034
     13 C16       -19.5930    5.9480  -20.1380 C.2       1 Q54         0.0526
     14 C19       -14.6210    4.6670  -19.8620 C.3       1 Q54        -0.0218
     15 C20       -14.2660    3.4280  -20.7190 C.3       1 Q54        -0.0484
     16 C21       -13.6140    2.8150  -19.4710 C.3       1 Q54        -0.0524
     17 C22       -12.8530    9.0220  -20.7590 C.3       1 Q54        -0.0684
     18 C24       -10.5850    9.8240  -19.9770 C.3       1 Q54        -0.0047
     19 N1        -14.8980    7.1500  -19.7500 N.pl3     1 Q54        -0.3199
     20 O1        -15.7100    9.6410  -18.4250 O.3       1 Q54        -0.3308
     21 O2        -20.8420    6.1840  -19.8600 O.co2     1 Q54        -0.5637
     22 O3        -19.2750    4.9370  -20.7360 O.co2     1 Q54        -0.5637
     23 C17       -14.4990    6.0050  -20.5820 C.3       1 Q54         0.0265
     24 C18       -13.6000    4.1960  -18.7980 C.3       1 Q54        -0.0484
     25 C4        -11.1310   10.0720  -18.6020 C.ar      1 Q54        -0.0167
     26 C5        -12.5060    9.7350  -18.2910 C.ar      1 Q54        -0.0424
     27 C6        -12.9310    9.9700  -16.9380 C.ar      1 Q54        -0.0456
     28 C23       -11.3220    8.7300  -20.7700 C.3       1 Q54        -0.0460
     29 CL1        -9.6640   11.4180  -15.1520 Cl        1 Q54        -0.0445
     30 H1        -12.4196   10.6599  -14.9542 H         1 Q54         0.0653
     31 H2         -9.2638   10.8585  -17.8714 H         1 Q54         0.0639
     32 H3        -17.0076    5.7220  -20.4689 H         1 Q54         0.0512
     33 H4        -20.0359    8.3252  -18.8577 H         1 Q54         0.0513
     34 H5        -18.2588    9.8945  -18.0880 H         1 Q54         0.0511
     35 H6        -15.2322    9.8047  -20.4190 H         1 Q54         0.0504
     36 H7        -14.5104   11.0422  -19.3354 H         1 Q54         0.0504
     37 H8        -14.1503    7.7245  -17.8452 H         1 Q54         0.0405
     38 H9        -12.9195    7.0691  -18.9776 H         1 Q54         0.0405
     39 H10       -15.6460    4.6257  -19.4648 H         1 Q54         0.0319
     40 H11       -13.5690    3.6294  -21.5458 H         1 Q54         0.0269
     41 H12       -15.1354    2.8719  -21.0995 H         1 Q54         0.0269
     42 H13       -12.6142    2.3922  -19.6487 H         1 Q54         0.0265
     43 H14       -14.2405    2.0714  -18.9566 H         1 Q54         0.0265
     44 H15       -13.0271    9.9707  -21.2879 H         1 Q54         0.0166
     45 H16       -13.3637    8.2062  -21.2915 H         1 Q54         0.0166
     46 H17        -9.5307    9.5258  -19.8792 H         1 Q54         0.0503
     47 H18       -10.6492   10.7629  -20.5464 H         1 Q54         0.0503
     48 H19       -15.1411    5.9812  -21.4748 H         1 Q54         0.0511
     49 H20       -13.4513    6.1433  -20.8874 H         1 Q54         0.0511
     50 H21       -13.9796    4.2046  -17.7656 H         1 Q54         0.0269
     51 H22       -12.6296    4.7126  -18.8362 H         1 Q54         0.0269
     52 H23       -13.9518    9.7320  -16.6618 H         1 Q54         0.0815
     53 H24       -10.9579    8.7214  -21.8079 H         1 Q54         0.0288
     54 H25       -11.1322    7.7506  -20.3066 H         1 Q54         0.0288
@<TRIPOS>BOND
     1    2    1 ar 
     2    1   27 ar 
     3    3    2 ar 
     4    2   29 1  
     5   25    3 ar 
     6    4    5 ar 
     7   10    4 ar 
     8    5    6 ar 
     9    5   13 1  
    10    7    6 ar 
    11   11    7 ar 
    12   12    8 1  
    13   20    8 1  
    14    9   12 1  
    15   19    9 1  
    16   10   11 ar 
    17   19   10 1  
    18   11   20 1  
    19   12   17 1  
    20   12   26 1  
    21   13   21 ar 
    22   13   22 ar 
    23   14   15 1  
    24   23   14 1  
    25   14   24 1  
    26   15   16 1  
    27   24   16 1  
    28   17   28 1  
    29   18   25 1  
    30   28   18 1  
    31   19   23 1  
    32   25   26 ar 
    33   26   27 ar 
    34    1   30 1  
    35    3   31 1  
    36    4   32 1  
    37    6   33 1  
    38    7   34 1  
    39    8   35 1  
    40    8   36 1  
    41    9   37 1  
    42    9   38 1  
    43   14   39 1  
    44   15   40 1  
    45   15   41 1  
    46   16   42 1  
    47   16   43 1  
    48   17   44 1  
    49   17   45 1  
    50   18   46 1  
    51   18   47 1  
    52   23   48 1  
    53   23   49 1  
    54   24   50 1  
    55   24   51 1  
    56   27   52 1  
    57   28   53 1  
    58   28   54 1  
@<TRIPOS>SUBSTRUCTURE
     1 Q54         1

