### 
### Created by X-TOOL on Mon Aug  2 16:16:57 2021
### 

@<TRIPOS>MOLECULE
6ueg_ligand
   37    38     1     0     0
SMALL
GAST_HUCK


@<TRIPOS>ATOM
      1 C20        -6.0270   -0.8540   52.0930 C.2       1 Q5G         0.0356
      2 C01        -8.3740   -4.9600   45.3380 C.ar      1 Q5G        -0.0868
      3 C02        -8.9850   -6.1710   44.9530 C.ar      1 Q5G        -0.0862
      4 C03        -8.7120   -7.3710   45.6300 C.ar      1 Q5G        -0.0459
      5 C04        -7.8130   -7.3800   46.7210 C.ar      1 Q5G         0.1164
      6 C05        -7.1940   -6.1720   47.1170 C.ar      1 Q5G         0.0997
      7 C06        -7.4840   -4.9680   46.4060 C.ar      1 Q5G        -0.0490
      8 N07        -6.2720   -6.1920   48.2570 N.am      1 Q5G        -0.2167
      9 C08        -6.3720   -7.2070   49.2470 C.3       1 Q5G         0.1007
     10 C09        -7.3300   -8.3520   48.9100 C.3       1 Q5G         0.1905
     11 O10        -7.4890   -8.6120   47.4870 O.3       1 Q5G        -0.2981
     12 C11        -7.0520   -9.7320   49.5350 C.2       1 Q5G         0.2095
     13 O12        -7.7620  -10.6350   49.1930 O.2       1 Q5G        -0.3939
     14 N13        -5.9770   -9.9570   50.4960 N.am      1 Q5G        -0.2984
     15 C14        -5.2200   -5.1410   48.3010 C.2       1 Q5G         0.2135
     16 O15        -5.1400   -4.2840   47.4340 O.2       1 Q5G        -0.3852
     17 C16        -4.2660   -5.1160   49.5070 C.3       1 Q5G         0.0889
     18 S17        -5.2140   -4.1450   50.7540 S.3       1 Q5G        -0.1369
     19 C18        -5.5510   -2.4660   50.0960 C.3       1 Q5G         0.0075
     20 C19        -5.0330   -1.3710   51.0420 C.3       1 Q5G         0.0094
     21 O21        -7.1360   -1.4220   52.2930 O.co2     1 Q5G        -0.5690
     22 O22        -5.7380    0.1610   52.7810 O.co2     1 Q5G        -0.5690
     23 H1         -8.5943   -4.0390   44.8105 H         1 Q5G         0.0484
     24 H2         -9.6780   -6.1760   44.1194 H         1 Q5G         0.0460
     25 H3         -9.1911   -8.2911   45.3156 H         1 Q5G         0.0495
     26 H4         -7.0017   -4.0441   46.7042 H         1 Q5G         0.0466
     27 H5         -6.7160   -6.7389   50.1811 H         1 Q5G         0.0637
     28 H6         -5.3700   -7.6348   49.3986 H         1 Q5G         0.0637
     29 H7         -8.3070   -8.0232   49.2939 H         1 Q5G         0.0915
     30 H8         -5.8307  -10.8695   50.8780 H         1 Q5G         0.1815
     31 H9         -5.3867   -9.1987   50.7725 H         1 Q5G         0.1815
     32 H10        -3.3187   -4.6178   49.2531 H         1 Q5G         0.0621
     33 H11        -4.0593   -6.1335   49.8703 H         1 Q5G         0.0621
     34 H12        -6.6369   -2.3437   49.9697 H         1 Q5G         0.0396
     35 H13        -5.0540   -2.3589   49.1205 H         1 Q5G         0.0396
     36 H14        -4.1602   -1.7748   51.5761 H         1 Q5G         0.0438
     37 H15        -4.7217   -0.5150   50.4253 H         1 Q5G         0.0438
@<TRIPOS>BOND
     1   20    1 1  
     2    1   21 ar 
     3    1   22 ar 
     4    2    3 ar 
     5    7    2 ar 
     6    4    3 ar 
     7    5    4 ar 
     8    6    5 ar 
     9    5   11 1  
    10    6    7 ar 
    11    8    6 1  
    12    8    9 1  
    13   15    8 am 
    14    9   10 1  
    15   10   11 1  
    16   10   12 1  
    17   12   13 2  
    18   12   14 am 
    19   15   16 2  
    20   17   15 1  
    21   18   17 1  
    22   19   18 1  
    23   19   20 1  
    24    2   23 1  
    25    3   24 1  
    26    4   25 1  
    27    7   26 1  
    28    9   27 1  
    29    9   28 1  
    30   10   29 1  
    31   14   30 1  
    32   14   31 1  
    33   17   32 1  
    34   17   33 1  
    35   19   34 1  
    36   19   35 1  
    37   20   36 1  
    38   20   37 1  
@<TRIPOS>SUBSTRUCTURE
     1 Q5G         1

