### 
### Created by X-TOOL on Mon Aug  2 16:16:58 2021
### 

@<TRIPOS>MOLECULE
6uf0_ligand
   66    69     1     0     0
SMALL
GAST_HUCK


@<TRIPOS>ATOM
      1 C19       -11.0750  -27.0590   -9.7440 C.ar      1 Q5V        -0.0434
      2 C21       -16.2260  -29.4870  -13.0090 C.ar      1 Q5V        -0.0435
      3 C18       -11.9400  -27.5750   -8.7930 C.ar      1 Q5V        -0.0313
      4 C17       -12.2780  -26.8060   -7.6690 C.ar      1 Q5V         0.0908
      5 C16       -11.7400  -25.5260   -7.5200 C.ar      1 Q5V        -0.0313
      6 C14       -10.5520  -25.7960   -9.5380 C.ar      1 Q5V         0.1039
      7 C12       -12.2400  -22.2330  -11.9730 C.2       1 Q5V         0.0610
      8 C26       -14.3670  -27.7920   -7.1410 C.3       1 Q5V         0.0594
      9 O3         -8.4720  -26.0660  -11.1340 O.2       1 Q5V        -0.1450
     10 S1         -9.4810  -25.0770  -10.7960 S.o2      1 Q5V         0.0908
     11 N2        -10.6510  -24.2780  -11.9780 N.am      1 Q5V        -0.1486
     12 C11       -10.8190  -22.8220  -12.0270 C.3       1 Q5V         0.1110
     13 O1        -13.1840  -22.6340  -11.2590 O.co2     1 Q5V        -0.5666
     14 O2        -12.4720  -21.2560  -12.6950 O.co2     1 Q5V        -0.5666
     15 C2        -11.5610  -25.0500  -12.9180 C.ar      1 Q5V         0.1320
     16 N1        -12.8510  -25.2270  -12.6230 N.ar      1 Q5V        -0.3227
     17 C1        -13.7120  -25.9350  -13.3760 C.ar      1 Q5V        -0.0088
     18 C5        -13.2520  -26.5120  -14.5470 C.ar      1 Q5V         0.0800
     19 N3        -14.0740  -27.4090  -15.3630 N.am      1 Q5V        -0.1670
     20 C10       -14.5390  -27.0500  -16.6810 C.3       1 Q5V         0.1505
     21 C13       -15.8680  -26.4050  -16.9050 C.3       1 Q5V         0.4126
     22 F1        -16.8610  -26.5630  -15.9980 F         1 Q5V        -0.1683
     23 F2        -15.5690  -25.1060  -17.0970 F         1 Q5V        -0.1683
     24 F3        -16.2630  -26.9850  -18.0290 F         1 Q5V        -0.1683
     25 S2        -14.1330  -29.1480  -14.7380 S.o2      1 Q5V         0.0870
     26 O5        -12.8420  -29.7500  -14.4670 O.2       1 Q5V        -0.1457
     27 C20       -14.8540  -29.3910  -13.0920 C.ar      1 Q5V         0.1032
     28 C22       -16.8080  -29.6600  -11.7610 C.ar      1 Q5V        -0.0313
     29 C23       -16.0050  -29.7640  -10.6400 C.ar      1 Q5V         0.0908
     30 O7        -16.6470  -29.9410   -9.4030 O.3       1 Q5V        -0.3212
     31 C27       -17.2180  -28.7590   -8.8730 C.3       1 Q5V         0.0594
     32 C24       -14.6240  -29.6420  -10.7440 C.ar      1 Q5V        -0.0313
     33 C25       -14.0230  -29.4690  -11.9860 C.ar      1 Q5V        -0.0435
     34 O6        -14.8320  -29.8670  -15.7920 O.2       1 Q5V        -0.1457
     35 C4        -11.8830  -26.3650  -14.9020 C.ar      1 Q5V         0.0103
     36 C3        -11.0440  -25.6010  -14.1000 C.ar      1 Q5V         0.0219
     37 C9         -9.7040  -25.4410  -14.4190 C.ar      1 Q5V        -0.0533
     38 C8         -9.2280  -26.0370  -15.5750 C.ar      1 Q5V        -0.0630
     39 C7        -10.0530  -26.7750  -16.3880 C.ar      1 Q5V        -0.0632
     40 C6        -11.3780  -26.9440  -16.0600 C.ar      1 Q5V        -0.0544
     41 C15       -10.8690  -25.0210   -8.4610 C.ar      1 Q5V        -0.0434
     42 O8        -13.1370  -27.3060   -6.6710 O.3       1 Q5V        -0.3212
     43 O4         -8.5610  -24.0890  -10.2560 O.2       1 Q5V        -0.1450
     44 H1        -10.8148  -27.6310  -10.6273 H         1 Q5V         0.0608
     45 H2        -16.8389  -29.4285  -13.9012 H         1 Q5V         0.0608
     46 H3        -12.3542  -28.5691   -8.9166 H         1 Q5V         0.0542
     47 H4        -12.0093  -24.9257   -6.6585 H         1 Q5V         0.0542
     48 H5        -14.9645  -28.1584   -6.2932 H         1 Q5V         0.0577
     49 H6        -14.1898  -28.6159   -7.8479 H         1 Q5V         0.0577
     50 H7        -14.9107  -26.9826   -7.6501 H         1 Q5V         0.0577
     51 H8        -10.2643  -22.4046  -11.1737 H         1 Q5V         0.0734
     52 H9        -10.3621  -22.4762  -12.9659 H         1 Q5V         0.0734
     53 H10       -14.7459  -26.0514  -13.0716 H         1 Q5V         0.0492
     54 H11       -14.5455  -27.9798  -17.2687 H         1 Q5V         0.0646
     55 H12       -13.7887  -26.3600  -17.0945 H         1 Q5V         0.0646
     56 H13       -17.8865  -29.7133  -11.6655 H         1 Q5V         0.0542
     57 H14       -17.6978  -28.9839   -7.9091 H         1 Q5V         0.0577
     58 H15       -17.9699  -28.3685   -9.5745 H         1 Q5V         0.0577
     59 H16       -16.4300  -28.0062   -8.7235 H         1 Q5V         0.0577
     60 H17       -14.0114  -29.6820   -9.8506 H         1 Q5V         0.0542
     61 H18       -12.9459  -29.3979  -12.0851 H         1 Q5V         0.0608
     62 H19        -9.0457  -24.8640  -13.7797 H         1 Q5V         0.0629
     63 H20        -8.1844  -25.9187  -15.8432 H         1 Q5V         0.0599
     64 H21        -9.6585  -27.2259  -17.2914 H         1 Q5V         0.0608
     65 H22       -12.0268  -27.5274  -16.7032 H         1 Q5V         0.0618
     66 H23       -10.4451  -24.0298   -8.3479 H         1 Q5V         0.0608
@<TRIPOS>BOND
     1    1    3 ar 
     2    6    1 ar 
     3   27    2 ar 
     4    2   28 ar 
     5    3    4 ar 
     6    5    4 ar 
     7    4   42 1  
     8   41    5 ar 
     9   10    6 1  
    10    6   41 ar 
    11   12    7 1  
    12    7   13 ar 
    13    7   14 ar 
    14   42    8 1  
    15   10    9 2  
    16   11   10 am 
    17   10   43 2  
    18   11   12 1  
    19   15   11 1  
    20   16   15 ar 
    21   15   36 ar 
    22   17   16 ar 
    23   18   17 ar 
    24   19   18 1  
    25   18   35 ar 
    26   19   20 1  
    27   25   19 am 
    28   20   21 1  
    29   21   22 1  
    30   21   23 1  
    31   21   24 1  
    32   25   26 2  
    33   25   27 1  
    34   25   34 2  
    35   27   33 ar 
    36   28   29 ar 
    37   29   30 1  
    38   29   32 ar 
    39   30   31 1  
    40   32   33 ar 
    41   35   36 ar 
    42   35   40 ar 
    43   36   37 ar 
    44   37   38 ar 
    45   38   39 ar 
    46   39   40 ar 
    47    1   44 1  
    48    2   45 1  
    49    3   46 1  
    50    5   47 1  
    51    8   48 1  
    52    8   49 1  
    53    8   50 1  
    54   12   51 1  
    55   12   52 1  
    56   17   53 1  
    57   20   54 1  
    58   20   55 1  
    59   28   56 1  
    60   31   57 1  
    61   31   58 1  
    62   31   59 1  
    63   32   60 1  
    64   33   61 1  
    65   37   62 1  
    66   38   63 1  
    67   39   64 1  
    68   40   65 1  
    69   41   66 1  
@<TRIPOS>SUBSTRUCTURE
     1 Q5V         1

