### 
### Created by X-TOOL on Mon Aug  2 16:16:58 2021
### 

@<TRIPOS>MOLECULE
6ufn_ligand
   40    39     1     0     0
SMALL
GAST_HUCK


@<TRIPOS>ATOM
      1 C11        27.6410   40.0280   34.4490 C.3       1 Q6M        -0.0288
      2 C12        28.8590   40.9660   34.2770 C.3       1 Q6M         0.0275
      3 C13        29.0510   41.3940   32.7970 C.3       1 Q6M        -0.0305
      4 C01        18.0160   40.9240   34.7130 C.3       1 Q6M        -0.0109
      5 C02        19.3280   40.2990   34.2170 C.3       1 Q6M         0.1615
      6 C05        20.5480   40.7580   35.0410 C.3       1 Q6M         0.0007
      7 C06        21.9170   40.3920   34.4530 C.3       1 Q6M        -0.0480
      8 C07        23.0210   40.2260   35.5180 C.3       1 Q6M        -0.0481
      9 C08        24.4430   40.4100   34.9650 C.3       1 Q6M        -0.0126
     10 C09        25.5420   39.6730   35.7740 C.3       1 Q6M        -0.0337
     11 N10        26.8620   40.3520   35.6750 N.4       1 Q6M         0.2271
     12 N14        30.4370   41.8210   32.5560 N.4       1 Q6M         0.2187
     13 O03        19.2690   38.9040   34.2980 O.3       1 Q6M        -0.3649
     14 O04        19.5650   40.6370   32.8870 O.3       1 Q6M        -0.3649
     15 H1         27.9981   38.9899   34.5182 H         1 Q6M         0.0816
     16 H2         26.9847   40.1323   33.5724 H         1 Q6M         0.0816
     17 H3         29.7640   40.4407   34.6162 H         1 Q6M         0.0369
     18 H4         28.7054   41.8657   34.8910 H         1 Q6M         0.0369
     19 H5         28.3714   42.2290   32.5713 H         1 Q6M         0.0815
     20 H6         28.8162   40.5426   32.1413 H         1 Q6M         0.0815
     21 H7         17.1814   40.5646   34.0932 H         1 Q6M         0.0281
     22 H8         18.0813   42.0196   34.6404 H         1 Q6M         0.0281
     23 H9         17.8454   40.6354   35.7607 H         1 Q6M         0.0281
     24 H10        20.4745   40.3010   36.0388 H         1 Q6M         0.0317
     25 H11        20.5012   41.8530   35.1348 H         1 Q6M         0.0317
     26 H12        22.2212   41.1882   33.7577 H         1 Q6M         0.0267
     27 H13        21.8178   39.4440   33.9041 H         1 Q6M         0.0267
     28 H14        22.9424   39.2156   35.9456 H         1 Q6M         0.0267
     29 H15        22.8563   40.9727   36.3088 H         1 Q6M         0.0267
     30 H16        24.6768   41.4849   34.9660 H         1 Q6M         0.0317
     31 H17        24.4629   40.0314   33.9324 H         1 Q6M         0.0317
     32 H18        25.6406   38.6484   35.3862 H         1 Q6M         0.0814
     33 H19        25.2402   39.6375   36.8312 H         1 Q6M         0.0814
     34 H20        26.7044   41.3474   35.6923 H         1 Q6M         0.2013
     35 H21        27.4126   40.0849   36.4760 H         1 Q6M         0.2013
     36 H22        30.5414   42.0945   31.5914 H         1 Q6M         0.1994
     37 H23        31.0637   41.0580   32.7586 H         1 Q6M         0.1994
     38 H24        30.6562   42.6033   33.1526 H         1 Q6M         0.1994
     39 H25        19.1077   38.6467   35.1982 H         1 Q6M         0.2127
     40 H26        19.6096   41.5824   32.8048 H         1 Q6M         0.2127
@<TRIPOS>BOND
     1    1    2 1  
     2   11    1 1  
     3    2    3 1  
     4    3   12 1  
     5    5    4 1  
     6    6    5 1  
     7    5   13 1  
     8    5   14 1  
     9    7    6 1  
    10    8    7 1  
    11    9    8 1  
    12   10    9 1  
    13   10   11 1  
    14    1   15 1  
    15    1   16 1  
    16    2   17 1  
    17    2   18 1  
    18    3   19 1  
    19    3   20 1  
    20    4   21 1  
    21    4   22 1  
    22    4   23 1  
    23    6   24 1  
    24    6   25 1  
    25    7   26 1  
    26    7   27 1  
    27    8   28 1  
    28    8   29 1  
    29    9   30 1  
    30    9   31 1  
    31   10   32 1  
    32   10   33 1  
    33   11   34 1  
    34   11   35 1  
    35   12   36 1  
    36   12   37 1  
    37   12   38 1  
    38   13   39 1  
    39   14   40 1  
@<TRIPOS>SUBSTRUCTURE
     1 Q6M         1

