### 
### Created by X-TOOL on Mon Aug  2 16:16:58 2021
### 

@<TRIPOS>MOLECULE
6ufo_ligand
   44    43     1     0     0
SMALL
GAST_HUCK


@<TRIPOS>ATOM
      1 C10       -24.6410  -40.3310   36.0380 C.3       1 Q6P        -0.0126
      2 C11       -25.8750  -39.9250   35.1800 C.3       1 Q6P        -0.0337
      3 C13       -28.1340  -40.6730   34.4000 C.3       1 Q6P        -0.0288
      4 C14       -29.1790  -39.5410   34.6180 C.3       1 Q6P         0.0275
      5 C15       -30.5570  -40.0420   35.1500 C.3       1 Q6P        -0.0305
      6 C01       -16.8520  -40.7910   35.3000 C.3       1 Q6P         0.0367
      7 C03       -18.7140  -41.6180   34.2190 C.3       1 Q6P         0.1008
      8 C04       -19.8990  -40.5770   34.0730 C.3       1 Q6P         0.1884
      9 C07       -20.8570  -41.0250   35.1950 C.3       1 Q6P         0.0033
     10 C08       -22.1220  -40.1410   35.3100 C.3       1 Q6P        -0.0479
     11 C09       -23.4610  -40.9200   35.2200 C.3       1 Q6P        -0.0481
     12 N12       -27.1050  -40.7190   35.4920 N.4       1 Q6P         0.2271
     13 N16       -30.9300  -39.3930   36.4310 N.4       1 Q6P         0.2187
     14 O02       -18.0970  -41.3930   35.4470 O.3       1 Q6P        -0.3777
     15 O05       -20.4440  -40.6700   32.8020 O.3       1 Q6P        -0.3629
     16 O06       -19.4730  -39.2800   34.3300 O.3       1 Q6P        -0.3629
     17 H1        -24.9636  -41.0860   36.7700 H         1 Q6P         0.0317
     18 H2        -24.2805  -39.4370   36.5679 H         1 Q6P         0.0317
     19 H3        -25.6252  -40.0722   34.1189 H         1 Q6P         0.0814
     20 H4        -26.0912  -38.8619   35.3618 H         1 Q6P         0.0814
     21 H5        -27.6236  -40.5029   33.4405 H         1 Q6P         0.0816
     22 H6        -28.6601  -41.6385   34.3694 H         1 Q6P         0.0816
     23 H7        -29.3438  -39.0328   33.6565 H         1 Q6P         0.0369
     24 H8        -28.7672  -38.8256   35.3451 H         1 Q6P         0.0369
     25 H9        -30.5029  -41.1295   35.3059 H         1 Q6P         0.0815
     26 H10       -31.3298  -39.8170   34.4002 H         1 Q6P         0.0815
     27 H11       -16.4021  -40.6324   36.2912 H         1 Q6P         0.0524
     28 H12       -16.9706  -39.8226   34.7920 H         1 Q6P         0.0524
     29 H13       -16.1984  -41.4419   34.7007 H         1 Q6P         0.0524
     30 H14       -17.9886  -41.4756   33.4044 H         1 Q6P         0.0613
     31 H15       -19.1103  -42.6434   34.1820 H         1 Q6P         0.0613
     32 H16       -20.3160  -40.9863   36.1520 H         1 Q6P         0.0318
     33 H17       -21.1714  -42.0596   34.9931 H         1 Q6P         0.0318
     34 H18       -22.0995  -39.4012   34.4963 H         1 Q6P         0.0267
     35 H19       -22.0912  -39.6213   36.2790 H         1 Q6P         0.0267
     36 H20       -23.7642  -40.9490   34.1630 H         1 Q6P         0.0267
     37 H21       -23.2802  -41.9443   35.5779 H         1 Q6P         0.0267
     38 H22       -27.5172  -40.3523   36.3356 H         1 Q6P         0.2013
     39 H23       -26.8371  -41.6796   35.6389 H         1 Q6P         0.2013
     40 H24       -31.8236  -39.7442   36.7379 H         1 Q6P         0.1994
     41 H25       -30.9888  -38.3956   36.2977 H         1 Q6P         0.1994
     42 H26       -30.2311  -39.5983   37.1277 H         1 Q6P         0.1994
     43 H27       -20.7289  -41.5626   32.6453 H         1 Q6P         0.2128
     44 H28       -18.8129  -39.0326   33.6932 H         1 Q6P         0.2128
@<TRIPOS>BOND
     1    1    2 1  
     2   11    1 1  
     3    2   12 1  
     4    3    4 1  
     5   12    3 1  
     6    4    5 1  
     7    5   13 1  
     8   14    6 1  
     9    8    7 1  
    10    7   14 1  
    11    9    8 1  
    12    8   15 1  
    13    8   16 1  
    14   10    9 1  
    15   10   11 1  
    16    1   17 1  
    17    1   18 1  
    18    2   19 1  
    19    2   20 1  
    20    3   21 1  
    21    3   22 1  
    22    4   23 1  
    23    4   24 1  
    24    5   25 1  
    25    5   26 1  
    26    6   27 1  
    27    6   28 1  
    28    6   29 1  
    29    7   30 1  
    30    7   31 1  
    31    9   32 1  
    32    9   33 1  
    33   10   34 1  
    34   10   35 1  
    35   11   36 1  
    36   11   37 1  
    37   12   38 1  
    38   12   39 1  
    39   13   40 1  
    40   13   41 1  
    41   13   42 1  
    42   15   43 1  
    43   16   44 1  
@<TRIPOS>SUBSTRUCTURE
     1 Q6P         1

