### 
### Created by X-TOOL on Mon Aug  2 16:16:59 2021
### 

@<TRIPOS>MOLECULE
6ugn_ligand
   25    26     1     0     0
SMALL
GAST_HUCK


@<TRIPOS>ATOM
      1 C14        15.3260    6.6580   15.9900 C.3       1 Q77        -0.0396
      2 C15        18.6920    3.9120   13.6020 C.3       1 Q77        -0.0365
      3 C01        15.8480    5.2710   15.6480 C.ar      1 Q77        -0.0657
      4 C02        16.9460    5.2340   14.8220 C.ar      1 Q77        -0.0718
      5 C03        17.4970    4.0220   14.5470 C.ar      1 Q77        -0.0285
      6 C04        16.8820    2.8810   15.0710 C.ar      1 Q77         0.0889
      7 C05        15.8020    2.8550   15.9200 C.ar      1 Q77         0.1205
      8 C06        15.2470    4.1170   16.1870 C.ar      1 Q77        -0.0538
      9 C08        16.9760    0.2790   15.0910 C.2       1 Q77         0.3041
     10 N07        17.5780    1.5800   14.6410 N.am      1 Q77        -0.2233
     11 N09        15.7980    0.1980   15.9100 N.am      1 Q77        -0.1374
     12 O11        17.4860   -0.6330   14.6230 O.2       1 Q77        -0.3907
     13 O12        13.7640    1.4790   16.6290 O.2       1 Q77        -0.1482
     14 O13        15.8080    1.3910   17.9610 O.2       1 Q77        -0.1482
     15 S10        15.2230    1.4900   16.6370 S.o2      1 Q77         0.0841
     16 H1         15.9301    7.4157   15.4695 H         1 Q77         0.0362
     17 H2         15.3939    6.8178   17.0762 H         1 Q77         0.0362
     18 H3         14.2766    6.7437   15.6716 H         1 Q77         0.0362
     19 H4         19.0215    4.9197   13.3088 H         1 Q77         0.0361
     20 H5         18.3994    3.3465   12.7050 H         1 Q77         0.0361
     21 H6         19.5157    3.3907   14.1116 H         1 Q77         0.0361
     22 H7         17.3601    6.1437   14.4025 H         1 Q77         0.0456
     23 H8         14.3604    4.2025   16.8049 H         1 Q77         0.0481
     24 H9         18.4053    1.5988   14.0795 H         1 Q77         0.2211
     25 H10        15.3346   -0.6808   16.0240 H         1 Q77         0.2143
@<TRIPOS>BOND
     1    3    1 1  
     2    5    2 1  
     3    4    3 ar 
     4    3    8 ar 
     5    4    5 ar 
     6    5    6 ar 
     7    6    7 ar 
     8    6   10 1  
     9    7    8 ar 
    10    7   15 1  
    11   10    9 am 
    12    9   11 am 
    13    9   12 2  
    14   11   15 am 
    15   15   13 2  
    16   15   14 2  
    17    1   16 1  
    18    1   17 1  
    19    1   18 1  
    20    2   19 1  
    21    2   20 1  
    22    2   21 1  
    23    4   22 1  
    24    8   23 1  
    25   10   24 1  
    26   11   25 1  
@<TRIPOS>SUBSTRUCTURE
     1 Q77         1

