### 
### Created by X-TOOL on Mon Aug  2 16:12:08 2021
### 

@<TRIPOS>MOLECULE
6ugo_ligand
   25    26     1     0     0
SMALL
GAST_HUCK


@<TRIPOS>ATOM
      1 C14       -26.7810    6.9680   15.8680 C.3       1 Q77        -0.0396
      2 C15       -23.2340    4.1560   13.8170 C.3       1 Q77        -0.0365
      3 C01       -26.2280    5.5710   15.6200 C.ar      1 Q77        -0.0657
      4 C02       -25.0590    5.5190   14.8730 C.ar      1 Q77        -0.0718
      5 C03       -24.5110    4.2960   14.6370 C.ar      1 Q77        -0.0285
      6 C04       -25.1150    3.1520   15.1730 C.ar      1 Q77         0.0889
      7 C05       -26.2760    3.1530   15.9140 C.ar      1 Q77         0.1205
      8 C06       -26.8520    4.4120   16.1370 C.ar      1 Q77        -0.0538
      9 C08       -25.0140    0.5030   15.2620 C.2       1 Q77         0.3041
     10 N07       -24.4000    1.8330   14.8330 N.am      1 Q77        -0.2233
     11 N09       -26.2480    0.4690   16.0130 N.am      1 Q77        -0.1374
     12 O11       -24.4760   -0.4790   14.9380 O.2       1 Q77        -0.3907
     13 O12       -28.3090    1.7210   16.6890 O.2       1 Q77        -0.1482
     14 O13       -26.2780    1.6430   17.9750 O.2       1 Q77        -0.1482
     15 S10       -26.8560    1.7720   16.6360 S.o2      1 Q77         0.0841
     16 H1        -26.1370    7.7103   15.3738 H         1 Q77         0.0362
     17 H2        -26.8054    7.1660   16.9497 H         1 Q77         0.0362
     18 H3        -27.8000    7.0368   15.4596 H         1 Q77         0.0362
     19 H4        -22.9044    5.1496   13.4793 H         1 Q77         0.0361
     20 H5        -23.4278    3.5172   12.9427 H         1 Q77         0.0361
     21 H6        -22.4481    3.7002   14.4372 H         1 Q77         0.0361
     22 H7        -24.5981    6.4225   14.4905 H         1 Q77         0.0456
     23 H8        -27.7722    4.4965   16.7036 H         1 Q77         0.0481
     24 H9        -23.5347    1.8469   14.3319 H         1 Q77         0.2211
     25 H10       -26.7228   -0.4022   16.1375 H         1 Q77         0.2143
@<TRIPOS>BOND
     1    3    1 1  
     2    5    2 1  
     3    4    3 ar 
     4    3    8 ar 
     5    4    5 ar 
     6    5    6 ar 
     7    6    7 ar 
     8    6   10 1  
     9    7    8 ar 
    10    7   15 1  
    11   10    9 am 
    12    9   11 am 
    13    9   12 2  
    14   11   15 am 
    15   15   13 2  
    16   15   14 2  
    17    1   16 1  
    18    1   17 1  
    19    1   18 1  
    20    2   19 1  
    21    2   20 1  
    22    2   21 1  
    23    4   22 1  
    24    8   23 1  
    25   10   24 1  
    26   11   25 1  
@<TRIPOS>SUBSTRUCTURE
     1 Q77         1

