### 
### Created by X-TOOL on Mon Aug  2 16:16:59 2021
### 

@<TRIPOS>MOLECULE
6ugp_ligand
   19    20     1     0     0
SMALL
GAST_HUCK


@<TRIPOS>ATOM
      1 O11        17.4150   -0.6160   14.9410 O.2       1 Q7A        -0.3890
      2 O12        15.6180    1.3030   18.0450 O.2       1 Q7A        -0.1479
      3 O13        13.4800    1.2860   16.8790 O.2       1 Q7A        -0.1479
      4 C01        15.1650    5.1190   15.9180 C.ar      1 Q7A        -0.0749
      5 C02        16.2310    5.1930   15.0180 C.ar      1 Q7A        -0.0616
      6 C03        17.0110    4.0830   14.8080 C.ar      1 Q7A         0.0610
      7 C04        16.5230    2.8730   15.2850 C.ar      1 Q7A         0.1075
      8 C05        15.3990    2.7440   16.0540 C.ar      1 Q7A         0.1332
      9 C06        14.6960    3.8780   16.3420 C.ar      1 Q7A        -0.0484
     10 C08        16.8040    0.2670   15.3230 C.2       1 Q7A         0.3082
     11 N07        17.3360    1.6290   14.9010 N.am      1 Q7A        -0.2154
     12 N09        15.5960    0.0640   16.1040 N.am      1 Q7A        -0.1364
     13 S10        14.9190    1.3430   16.7380 S.o2      1 Q7A         0.0872
     14 CL14       18.5370    4.1400   13.8650 Cl        1 Q7A        -0.0831
     15 H1         14.7028    6.0277   16.2864 H         1 Q7A         0.0488
     16 H2         16.4400    6.1170   14.4911 H         1 Q7A         0.0582
     17 H3         13.7703    3.8125   16.9022 H         1 Q7A         0.0598
     18 H4         18.1906    1.7111   14.3883 H         1 Q7A         0.2261
     19 H5         15.2086   -0.8485   16.2350 H         1 Q7A         0.2145
@<TRIPOS>BOND
     1   10    1 2  
     2   13    2 2  
     3   13    3 2  
     4    5    4 ar 
     5    9    4 ar 
     6    6    5 ar 
     7    7    6 ar 
     8    6   14 1  
     9    7    8 ar 
    10   11    7 1  
    11    8    9 ar 
    12    8   13 1  
    13   10   11 am 
    14   10   12 am 
    15   12   13 am 
    16    4   15 1  
    17    5   16 1  
    18    9   17 1  
    19   11   18 1  
    20   12   19 1  
@<TRIPOS>SUBSTRUCTURE
     1 Q7A         1

