### 
### Created by X-TOOL on Mon Aug  2 16:17:18 2021
### 

@<TRIPOS>MOLECULE
6ugq_ligand
   19    20     1     0     0
SMALL
GAST_HUCK


@<TRIPOS>ATOM
      1 O11       -24.4440   -0.5290   15.0640 O.2       1 Q7A        -0.3890
      2 O12       -26.3810    1.3480   18.0950 O.2       1 Q7A        -0.1479
      3 O13       -28.5210    1.3140   16.8470 O.2       1 Q7A        -0.1479
      4 C01       -27.0110    5.0950   15.9680 C.ar      1 Q7A        -0.0749
      5 C02       -25.7460    5.2830   15.3310 C.ar      1 Q7A        -0.0616
      6 C03       -24.9410    4.2010   14.9940 C.ar      1 Q7A         0.0610
      7 C04       -25.4240    2.9690   15.4160 C.ar      1 Q7A         0.1075
      8 C05       -26.5940    2.8110   16.1200 C.ar      1 Q7A         0.1332
      9 C06       -27.3680    3.8940   16.4440 C.ar      1 Q7A        -0.0484
     10 C08       -25.0820    0.3550   15.4250 C.2       1 Q7A         0.3082
     11 N07       -24.5580    1.7370   15.0590 N.am      1 Q7A        -0.2154
     12 N09       -26.3340    0.1440   16.1310 N.am      1 Q7A        -0.1364
     13 S10       -27.0500    1.3990   16.7740 S.o2      1 Q7A         0.0872
     14 CL14      -23.3460    4.2650   14.1450 Cl        1 Q7A        -0.0831
     15 H1        -27.6903    5.9339   16.0675 H         1 Q7A         0.0488
     16 H2        -25.4077    6.2881   15.1063 H         1 Q7A         0.0582
     17 H3        -28.2465    3.7824   17.0692 H         1 Q7A         0.0598
     18 H4        -23.6765    1.8458   14.5995 H         1 Q7A         0.2261
     19 H5        -26.7323   -0.7700   16.2083 H         1 Q7A         0.2145
@<TRIPOS>BOND
     1   10    1 2  
     2   13    2 2  
     3   13    3 2  
     4    5    4 ar 
     5    9    4 ar 
     6    6    5 ar 
     7    7    6 ar 
     8    6   14 1  
     9    7    8 ar 
    10   11    7 1  
    11    8    9 ar 
    12    8   13 1  
    13   10   11 am 
    14   10   12 am 
    15   12   13 am 
    16    4   15 1  
    17    5   16 1  
    18    9   17 1  
    19   11   18 1  
    20   12   19 1  
@<TRIPOS>SUBSTRUCTURE
     1 Q7A         1

