### 
### Created by X-TOOL on Mon Aug  2 16:16:59 2021
### 

@<TRIPOS>MOLECULE
6ugr_ligand
   19    20     1     0     0
SMALL
GAST_HUCK


@<TRIPOS>ATOM
      1 C01        15.4210    4.9710   15.5750 C.ar      1 Q71         0.1175
      2 C02        16.5470    4.9520   14.7940 C.ar      1 Q71        -0.0418
      3 C03        17.1220    3.7410   14.5640 C.ar      1 Q71        -0.0410
      4 C04        16.5210    2.6350   15.1560 C.ar      1 Q71         0.0897
      5 C05        15.4280    2.5850   15.9900 C.ar      1 Q71         0.1313
      6 C06        14.8420    3.8450   16.1550 C.ar      1 Q71        -0.0148
      7 C08        16.6800    0.0930   15.2120 C.2       1 Q71         0.3068
      8 F14        14.7920    6.1710   15.7050 F         1 Q71        -0.1963
      9 N07        17.2650    1.3780   14.7670 N.am      1 Q71        -0.2186
     10 N09        15.4940   -0.0060   15.9910 N.am      1 Q71        -0.1367
     11 O11        17.1650   -0.8090   14.7060 O.2       1 Q71        -0.3896
     12 O12        15.6210    1.1340   18.1200 O.2       1 Q71        -0.1480
     13 O13        13.4640    1.2090   16.8650 O.2       1 Q71        -0.1480
     14 S10        14.9400    1.2290   16.8060 S.o2      1 Q71         0.0864
     15 H1         16.9615    5.8629   14.3775 H         1 Q71         0.0566
     16 H2         18.0081    3.6423   13.9475 H         1 Q71         0.0493
     17 H3         13.9330    3.9451   16.7371 H         1 Q71         0.0585
     18 H4         18.1111    1.4128   14.2350 H         1 Q71         0.2243
     19 H5         15.0006   -0.8752   16.0235 H         1 Q71         0.2144
@<TRIPOS>BOND
     1    1    2 ar 
     2    1    6 ar 
     3    1    8 1  
     4    2    3 ar 
     5    3    4 ar 
     6    4    5 ar 
     7    4    9 1  
     8    5    6 ar 
     9    5   14 1  
    10    9    7 am 
    11    7   10 am 
    12    7   11 2  
    13   10   14 am 
    14   14   12 2  
    15   14   13 2  
    16    2   15 1  
    17    3   16 1  
    18    6   17 1  
    19    9   18 1  
    20   10   19 1  
@<TRIPOS>SUBSTRUCTURE
     1 Q71         1

