### 
### Created by X-TOOL on Mon Aug  2 16:16:59 2021
### 

@<TRIPOS>MOLECULE
6ugz_ligand
   19    20     1     0     0
SMALL
GAST_HUCK


@<TRIPOS>ATOM
      1 C01       -26.4780    5.3360   15.6370 C.ar      1 Q71         0.1175
      2 C02       -25.3310    5.2980   14.8880 C.ar      1 Q71        -0.0418
      3 C03       -24.7530    4.0990   14.6800 C.ar      1 Q71        -0.0410
      4 C04       -25.3710    2.9970   15.2420 C.ar      1 Q71         0.0897
      5 C05       -26.4920    2.9560   16.0520 C.ar      1 Q71         0.1313
      6 C06       -27.0790    4.2220   16.2130 C.ar      1 Q71        -0.0148
      7 C08       -25.2410    0.4360   15.2890 C.2       1 Q71         0.3068
      8 F14       -27.0710    6.5510   15.7480 F         1 Q71        -0.1963
      9 N07       -24.6230    1.7220   14.9080 N.am      1 Q71        -0.2186
     10 N09       -26.4310    0.3800   16.0480 N.am      1 Q71        -0.1367
     11 O11       -24.7140   -0.4810   14.8460 O.2       1 Q71        -0.3896
     12 O12       -26.3170    1.5160   18.1540 O.2       1 Q71        -0.1480
     13 O13       -28.4580    1.5810   16.8750 O.2       1 Q71        -0.1480
     14 S10       -26.9940    1.5910   16.8570 S.o2      1 Q71         0.0864
     15 H1        -24.9022    6.2043   14.4758 H         1 Q71         0.0566
     16 H2        -23.8437    4.0024   14.0978 H         1 Q71         0.0493
     17 H3        -27.9949    4.3300   16.7827 H         1 Q71         0.0585
     18 H4        -23.7378    1.7506   14.4437 H         1 Q71         0.2243
     19 H5        -26.9397   -0.4807   16.0683 H         1 Q71         0.2144
@<TRIPOS>BOND
     1    1    2 ar 
     2    1    6 ar 
     3    1    8 1  
     4    2    3 ar 
     5    3    4 ar 
     6    4    5 ar 
     7    4    9 1  
     8    5    6 ar 
     9    5   14 1  
    10    9    7 am 
    11    7   10 am 
    12    7   11 2  
    13   10   14 am 
    14   14   12 2  
    15   14   13 2  
    16    2   15 1  
    17    3   16 1  
    18    6   17 1  
    19    9   18 1  
    20   10   19 1  
@<TRIPOS>SUBSTRUCTURE
     1 Q71         1

