### 
### Created by X-TOOL on Mon Aug  2 16:16:59 2021
### 

@<TRIPOS>MOLECULE
6uh0_ligand
   22    23     1     0     0
SMALL
GAST_HUCK


@<TRIPOS>ATOM
      1 N10        15.5140   -0.0240   15.9510 N.am      1 PX7        -0.1363
      2 C01        14.5690    3.8230   16.5880 C.ar      1 PX7        -0.0486
      3 C02        14.8770    5.0700   16.0240 C.ar      1 PX7        -0.0755
      4 C03        15.7570    5.1940   14.9520 C.ar      1 PX7        -0.0756
      5 C04        16.3390    4.0700   14.4580 C.ar      1 PX7        -0.0395
      6 C05        16.0220    2.8310   15.0350 C.ar      1 PX7         0.0959
      7 C06        15.1560    2.6420   16.1060 C.ar      1 PX7         0.1327
      8 S07        14.8840    1.1730   16.8320 S.o2      1 PX7         0.0872
      9 N08        16.7340    1.6300   14.3560 N.am      1 PX7        -0.2055
     10 C09        16.4550    0.2310   14.8860 C.2       1 PX7         0.3101
     11 O11        13.4460    1.0210   17.0350 O.2       1 PX7        -0.1479
     12 O12        15.7110    1.1560   18.0510 O.2       1 PX7        -0.1479
     13 O13        16.9650   -0.6650   14.3470 O.2       1 PX7        -0.3891
     14 C1         17.6270    1.8030   13.2220 C.3       1 PX7         0.0451
     15 H1         15.2455   -0.9669   16.1480 H         1 PX7         0.2145
     16 H2         13.8652    3.7702   17.4107 H         1 PX7         0.0596
     17 H3         14.4171    5.9619   16.4341 H         1 PX7         0.0487
     18 H4         15.9728    6.1651   14.5214 H         1 PX7         0.0577
     19 H5         17.0373    4.1296   13.6310 H         1 PX7         0.0501
     20 H6         17.7092    2.8729   12.9799 H         1 PX7         0.0547
     21 H7         17.2259    1.2603   12.3533 H         1 PX7         0.0547
     22 H8         18.6216    1.4068   13.4747 H         1 PX7         0.0547
@<TRIPOS>BOND
     1    8    1 am 
     2    1   10 am 
     3    2    3 ar 
     4    7    2 ar 
     5    3    4 ar 
     6    5    4 ar 
     7    6    5 ar 
     8    7    6 ar 
     9    6    9 1  
    10    7    8 1  
    11    8   11 2  
    12    8   12 2  
    13    9   10 am 
    14    9   14 1  
    15   10   13 2  
    16    1   15 1  
    17    2   16 1  
    18    3   17 1  
    19    4   18 1  
    20    5   19 1  
    21   14   20 1  
    22   14   21 1  
    23   14   22 1  
@<TRIPOS>SUBSTRUCTURE
     1 PX7         1

