### 
### Created by X-TOOL on Mon Aug  2 16:16:59 2021
### 

@<TRIPOS>MOLECULE
6uhv_ligand
   37    36     1     0     0
SMALL
GAST_HUCK


@<TRIPOS>ATOM
      1 C2         30.2410   37.9230   31.3190 C.3       1 XS6        -0.0305
      2 C3         29.1850   37.5370   32.3990 C.3       1 XS6         0.0275
      3 C4         28.8420   38.7030   33.3800 C.3       1 XS6        -0.0288
      4 C6         26.9950   39.8680   34.5850 C.3       1 XS6        -0.0337
      5 C7         25.7100   39.6130   35.4490 C.3       1 XS6        -0.0124
      6 C8         24.5390   40.6020   35.1540 C.3       1 XS6        -0.0462
      7 C9         23.1300   39.9290   35.0130 C.3       1 XS6        -0.0359
      8 C10        22.0510   40.7980   34.2770 C.3       1 XS6         0.0389
      9 C11        20.8140   40.0710   33.7270 C.2       1 XS6         0.1988
     10 N1         29.6270   38.1260   29.9820 N.4       1 XS6         0.2187
     11 N5         27.4090   38.6360   33.8290 N.4       1 XS6         0.2271
     12 N13        19.9580   39.2990   34.5350 N.am      1 XS6        -0.1642
     13 O12        20.5840   40.1840   32.4820 O.2       1 XS6        -0.3970
     14 O14        18.8470   38.6750   33.8890 O.3       1 XS6        -0.2717
     15 H1         30.9861   37.1170   31.2480 H         1 XS6         0.0815
     16 H2         30.7375   38.8553   31.6261 H         1 XS6         0.0815
     17 H3         29.5787   36.6935   32.9850 H         1 XS6         0.0369
     18 H4         28.2610   37.2289   31.8879 H         1 XS6         0.0369
     19 H5         29.0130   39.6624   32.8698 H         1 XS6         0.0816
     20 H6         29.4970   38.6343   34.2610 H         1 XS6         0.0816
     21 H7         27.8172   40.1717   35.2496 H         1 XS6         0.0814
     22 H8         26.7874   40.6745   33.8663 H         1 XS6         0.0814
     23 H9         25.9828   39.7070   36.5105 H         1 XS6         0.0317
     24 H10        25.3571   38.5903   35.2503 H         1 XS6         0.0317
     25 H11        24.7631   41.1270   34.2137 H         1 XS6         0.0269
     26 H12        24.4898   41.3296   35.9775 H         1 XS6         0.0269
     27 H13        22.7564   39.7045   36.0230 H         1 XS6         0.0289
     28 H14        23.2543   38.9915   34.4512 H         1 XS6         0.0289
     29 H15        22.5475   41.2924   33.4290 H         1 XS6         0.0502
     30 H16        21.6976   41.5583   34.9890 H         1 XS6         0.0502
     31 H17        30.3434   38.3731   29.3173 H         1 XS6         0.1994
     32 H18        28.9465   38.8678   30.0339 H         1 XS6         0.1994
     33 H19        29.1744   37.2749   29.6873 H         1 XS6         0.1994
     34 H20        27.2931   37.8332   34.4274 H         1 XS6         0.2013
     35 H21        26.8185   38.5386   33.0179 H         1 XS6         0.2013
     36 H22        20.1201   39.1923   35.5160 H         1 XS6         0.2216
     37 H23        18.3444   38.1848   34.5290 H         1 XS6         0.2490
@<TRIPOS>BOND
     1    2    1 1  
     2    1   10 1  
     3    3    2 1  
     4   11    3 1  
     5    4    5 1  
     6    4   11 1  
     7    5    6 1  
     8    6    7 1  
     9    7    8 1  
    10    8    9 1  
    11    9   12 am 
    12    9   13 2  
    13   12   14 1  
    14    1   15 1  
    15    1   16 1  
    16    2   17 1  
    17    2   18 1  
    18    3   19 1  
    19    3   20 1  
    20    4   21 1  
    21    4   22 1  
    22    5   23 1  
    23    5   24 1  
    24    6   25 1  
    25    6   26 1  
    26    7   27 1  
    27    7   28 1  
    28    8   29 1  
    29    8   30 1  
    30   10   31 1  
    31   10   32 1  
    32   10   33 1  
    33   11   34 1  
    34   11   35 1  
    35   12   36 1  
    36   14   37 1  
@<TRIPOS>SUBSTRUCTURE
     1 XS6         1

