### 
### Created by X-TOOL on Mon Aug  2 16:17:00 2021
### 

@<TRIPOS>MOLECULE
6uii_ligand
   33    32     1     0     0
SMALL
GAST_HUCK


@<TRIPOS>ATOM
      1 C2        -28.9480  -41.0630   33.1180 C.3       1 SS9        -0.0305
      2 C3        -28.0980  -39.8320   33.4210 C.3       1 SS9         0.0275
      3 C4        -27.3730  -40.0070   34.7400 C.3       1 SS9        -0.0288
      4 C6        -24.9960  -40.1330   35.1610 C.3       1 SS9        -0.0337
      5 C7        -23.6880  -39.4210   34.9190 C.3       1 SS9        -0.0126
      6 C8        -22.8940  -40.2260   33.9560 C.3       1 SS9        -0.0475
      7 C9        -21.6120  -39.5520   33.6870 C.3       1 SS9        -0.0441
      8 C10       -20.4990  -40.4890   33.9380 C.3       1 SS9        -0.0093
      9 N1        -29.6610  -41.0380   31.8440 N.4       1 SS9         0.2187
     10 N5        -26.1020  -39.2910   34.6820 N.4       1 SS9         0.2271
     11 S11       -19.0500  -39.5980   33.4110 S.3       1 SS9        -0.1783
     12 H1        -29.6928  -41.1663   33.9209 H         1 SS9         0.0815
     13 H2        -28.2850  -41.9407   33.1178 H         1 SS9         0.0815
     14 H3        -28.7485  -38.9468   33.4789 H         1 SS9         0.0369
     15 H4        -27.3604  -39.6931   32.6169 H         1 SS9         0.0369
     16 H5        -27.1862  -41.0761   34.9193 H         1 SS9         0.0816
     17 H6        -27.9885  -39.6004   35.5560 H         1 SS9         0.0816
     18 H7        -25.1178  -40.3224   36.2377 H         1 SS9         0.0814
     19 H8        -25.0001  -41.0894   34.6176 H         1 SS9         0.0814
     20 H9        -23.1367  -39.3225   35.8657 H         1 SS9         0.0317
     21 H10       -23.8795  -38.4219   34.5005 H         1 SS9         0.0317
     22 H11       -23.4561  -40.3318   33.0164 H         1 SS9         0.0267
     23 H12       -22.7017  -41.2216   34.3823 H         1 SS9         0.0267
     24 H13       -21.5116  -38.6785   34.3480 H         1 SS9         0.0273
     25 H14       -21.5842  -39.2230   32.6377 H         1 SS9         0.0273
     26 H15       -20.6251  -41.4107   33.3510 H         1 SS9         0.0374
     27 H16       -20.4347  -40.7409   35.0068 H         1 SS9         0.0374
     28 H17       -30.1898  -41.8896   31.7382 H         1 SS9         0.1994
     29 H18       -28.9977  -40.9584   31.0892 H         1 SS9         0.1994
     30 H19       -30.2878  -40.2488   31.8251 H         1 SS9         0.1994
     31 H20       -26.1620  -38.4670   35.2595 H         1 SS9         0.2013
     32 H21       -25.9201  -39.0204   33.7282 H         1 SS9         0.2013
     33 H22       -18.9620  -38.7519   33.9520 H         1 SS9         0.1016
@<TRIPOS>BOND
     1    2    1 1  
     2    1    9 1  
     3    3    2 1  
     4   10    3 1  
     5    4    5 1  
     6    4   10 1  
     7    5    6 1  
     8    6    7 1  
     9    7    8 1  
    10    8   11 1  
    11    1   12 1  
    12    1   13 1  
    13    2   14 1  
    14    2   15 1  
    15    3   16 1  
    16    3   17 1  
    17    4   18 1  
    18    4   19 1  
    19    5   20 1  
    20    5   21 1  
    21    6   22 1  
    22    6   23 1  
    23    7   24 1  
    24    7   25 1  
    25    8   26 1  
    26    8   27 1  
    27    9   28 1  
    28    9   29 1  
    29    9   30 1  
    30   10   31 1  
    31   10   32 1  
    32   11   33 1  
@<TRIPOS>SUBSTRUCTURE
     1 SS9         1

