### 
### Created by X-TOOL on Mon Aug  2 16:17:00 2021
### 

@<TRIPOS>MOLECULE
6uil_ligand
   40    39     1     0     0
SMALL
GAST_HUCK


@<TRIPOS>ATOM
      1 C2         70.5310  110.7690  274.7880 C.3       1 FKS        -0.0305
      2 C3         69.2000  110.6660  275.5800 C.3       1 FKS         0.0275
      3 C4         69.2730  109.7240  276.8060 C.3       1 FKS        -0.0288
      4 C6         66.8980  109.1740  277.4180 C.3       1 FKS        -0.0337
      5 C7         65.7090  110.0950  277.0120 C.3       1 FKS        -0.0126
      6 C8         64.3120  109.5560  277.4030 C.3       1 FKS        -0.0481
      7 C9         63.2050  109.8810  276.3700 C.3       1 FKS        -0.0477
      8 C10        61.8450  110.2440  276.9890 C.3       1 FKS         0.0101
      9 C11        60.6160  109.8690  276.1200 C.3       1 FKS         0.2629
     10 C12        59.2920  110.6820  276.5950 C.3       1 FKS         0.4438
     11 F15        58.1930  110.1850  275.9960 F         1 FKS        -0.1654
     12 F16        59.0390  110.6070  277.9060 F         1 FKS        -0.1654
     13 F17        59.2950  111.9790  276.2890 F         1 FKS        -0.1654
     14 N5         68.1320  109.9520  277.7420 N.4       1 FKS         0.2271
     15 N1         70.3900  110.7190  273.3360 N.4       1 FKS         0.2187
     16 O13        60.8050  110.1890  274.7930 O.3       1 FKS        -0.3581
     17 O14        60.3190  108.5310  276.2540 O.3       1 FKS        -0.3581
     18 H1         71.1775  109.9344  275.0970 H         1 FKS         0.0815
     19 H2         71.0120  111.7225  275.0515 H         1 FKS         0.0815
     20 H3         68.4204  110.2909  274.9006 H         1 FKS         0.0369
     21 H4         68.9270  111.6719  275.9316 H         1 FKS         0.0369
     22 H5         70.2162  109.9072  277.3415 H         1 FKS         0.0816
     23 H6         69.2459  108.6811  276.4572 H         1 FKS         0.0816
     24 H7         67.1185  108.4922  276.5835 H         1 FKS         0.0814
     25 H8         66.6063  108.5887  278.3025 H         1 FKS         0.0814
     26 H9         65.7331  110.2246  275.9199 H         1 FKS         0.0317
     27 H10        65.8489  111.0707  277.5002 H         1 FKS         0.0317
     28 H11        64.0267  109.9998  278.3682 H         1 FKS         0.0267
     29 H12        64.3787  108.4630  277.5074 H         1 FKS         0.0267
     30 H13        63.0657  108.9999  275.7263 H         1 FKS         0.0267
     31 H14        63.5430  110.7314  275.7596 H         1 FKS         0.0267
     32 H15        61.8252  111.3305  277.1594 H         1 FKS         0.0320
     33 H16        61.7562  109.7201  277.9521 H         1 FKS         0.0320
     34 H17        67.8998  110.9327  277.7221 H         1 FKS         0.2013
     35 H18        68.4305  109.6962  278.6702 H         1 FKS         0.2013
     36 H19        71.2994  110.7922  272.9074 H         1 FKS         0.1994
     37 H20        69.8109  111.4844  273.0281 H         1 FKS         0.1994
     38 H21        69.9625  109.8459  273.0698 H         1 FKS         0.1994
     39 H22        61.0087  111.1138  274.7173 H         1 FKS         0.2130
     40 H23        59.5245  108.3343  275.7717 H         1 FKS         0.2130
@<TRIPOS>BOND
     1    2    1 1  
     2    1   15 1  
     3    3    2 1  
     4   14    3 1  
     5    4    5 1  
     6    4   14 1  
     7    5    6 1  
     8    6    7 1  
     9    7    8 1  
    10    8    9 1  
    11    9   10 1  
    12    9   16 1  
    13    9   17 1  
    14   10   11 1  
    15   10   12 1  
    16   10   13 1  
    17    1   18 1  
    18    1   19 1  
    19    2   20 1  
    20    2   21 1  
    21    3   22 1  
    22    3   23 1  
    23    4   24 1  
    24    4   25 1  
    25    5   26 1  
    26    5   27 1  
    27    6   28 1  
    28    6   29 1  
    29    7   30 1  
    30    7   31 1  
    31    8   32 1  
    32    8   33 1  
    33   14   34 1  
    34   14   35 1  
    35   15   36 1  
    36   15   37 1  
    37   15   38 1  
    38   16   39 1  
    39   17   40 1  
@<TRIPOS>SUBSTRUCTURE
     1 FKS         1

