### 
### Created by X-TOOL on Mon Aug  2 16:17:01 2021
### 

@<TRIPOS>MOLECULE
6uim_ligand
   38    37     1     0     0
SMALL
GAST_HUCK


@<TRIPOS>ATOM
      1 C10        63.5630  109.7430  275.8400 C.3       1 Q7Y         0.0219
      2 C11        62.3660  109.8240  274.9330 C.2       1 Q7Y         0.1145
      3 C13        61.0340  110.0630  275.5540 C.3       1 Q7Y         0.0642
      4 C02        70.2440  107.0870  271.1070 C.3       1 Q7Y        -0.0305
      5 C03        70.7650  107.6870  272.4300 C.3       1 Q7Y         0.0275
      6 C04        69.7630  107.4030  273.5680 C.3       1 Q7Y        -0.0288
      7 C06        68.1680  108.5650  275.1170 C.3       1 Q7Y        -0.0337
      8 C07        67.3920  109.8920  275.1980 C.3       1 Q7Y        -0.0124
      9 C08        66.0850  109.7460  275.9720 C.3       1 Q7Y        -0.0461
     10 C09        64.8580  109.9930  275.0980 C.3       1 Q7Y        -0.0369
     11 N01        70.9490  107.6870  269.9700 N.4       1 Q7Y         0.2187
     12 N05        69.2460  108.6810  274.1150 N.4       1 Q7Y         0.2271
     13 O12        62.4700  109.7030  273.7220 O.2       1 Q7Y        -0.3907
     14 S14        59.7870  109.3220  274.5170 S.3       1 Q7Y        -0.1575
     15 H1         63.6000  108.7398  276.2896 H         1 Q7Y         0.0494
     16 H2         63.4580  110.4971  276.6339 H         1 Q7Y         0.0494
     17 H3         60.8522  111.1446  275.6381 H         1 Q7Y         0.0605
     18 H4         61.0036  109.6071  276.5546 H         1 Q7Y         0.0605
     19 H5         69.1667  107.2893  271.0150 H         1 Q7Y         0.0815
     20 H6         70.4142  106.0003  271.1083 H         1 Q7Y         0.0815
     21 H7         70.8864  108.7741  272.3143 H         1 Q7Y         0.0369
     22 H8         71.7362  107.2339  272.6781 H         1 Q7Y         0.0369
     23 H9         70.2685  106.8418  274.3677 H         1 Q7Y         0.0816
     24 H10        68.9247  106.8082  273.1761 H         1 Q7Y         0.0816
     25 H11        67.4816  107.7570  274.8240 H         1 Q7Y         0.0814
     26 H12        68.6053  108.3362  276.1001 H         1 Q7Y         0.0814
     27 H13        67.1636  110.2323  274.1772 H         1 Q7Y         0.0317
     28 H14        68.0210  110.6406  275.7020 H         1 Q7Y         0.0317
     29 H15        66.0813  110.4718  276.7985 H         1 Q7Y         0.0269
     30 H16        66.0283  108.7259  276.3796 H         1 Q7Y         0.0269
     31 H17        64.8729  111.0381  274.7551 H         1 Q7Y         0.0290
     32 H18        64.9025  109.3210  274.2283 H         1 Q7Y         0.0290
     33 H19        70.6019  107.2889  269.1115 H         1 Q7Y         0.1994
     34 H20        71.9365  107.5016  270.0512 H         1 Q7Y         0.1994
     35 H21        70.7933  108.6829  269.9656 H         1 Q7Y         0.1994
     36 H22        68.8936  109.2267  273.3442 H         1 Q7Y         0.2013
     37 H23        70.0170  109.1668  274.5459 H         1 Q7Y         0.2013
     38 H24        58.8780  109.4755  274.9247 H         1 Q7Y         0.1044
@<TRIPOS>BOND
     1    1    2 1  
     2   10    1 1  
     3    2    3 1  
     4    2   13 2  
     5    3   14 1  
     6    5    4 1  
     7    4   11 1  
     8    6    5 1  
     9   12    6 1  
    10    8    7 1  
    11    7   12 1  
    12    9    8 1  
    13    9   10 1  
    14    1   15 1  
    15    1   16 1  
    16    3   17 1  
    17    3   18 1  
    18    4   19 1  
    19    4   20 1  
    20    5   21 1  
    21    5   22 1  
    22    6   23 1  
    23    6   24 1  
    24    7   25 1  
    25    7   26 1  
    26    8   27 1  
    27    8   28 1  
    28    9   29 1  
    29    9   30 1  
    30   10   31 1  
    31   10   32 1  
    32   11   33 1  
    33   11   34 1  
    34   11   35 1  
    35   12   36 1  
    36   12   37 1  
    37   14   38 1  
@<TRIPOS>SUBSTRUCTURE
     1 Q7Y         1

