### 
### Created by X-TOOL on Mon Aug  2 16:17:01 2021
### 

@<TRIPOS>MOLECULE
6ul8_ligand
   42    46     1     0     0
SMALL
GAST_HUCK


@<TRIPOS>ATOM
      1 C10        35.5220  -41.5660   -4.2120 C.3       1 Q9J        -0.0191
      2 C13        36.5930  -41.0750   -1.9470 C.3       1 Q9J         0.0745
      3 C17        35.8460  -36.6100   -0.4040 C.ar      1 Q9J        -0.0237
      4 C20        35.0900  -34.6830    1.4360 C.ar      1 Q9J         0.0581
      5 C22        35.7710  -34.6520    3.7570 C.2       1 Q9J         0.0810
      6 C24        35.9210  -35.7350    1.8430 C.ar      1 Q9J         0.0380
      7 N01        37.3100  -35.1370   -2.8900 N.am      1 Q9J        -0.3083
      8 C02        37.1060  -36.3100   -3.4870 C.2       1 Q9J         0.1680
      9 O03        37.2110  -36.4070   -4.7190 O.2       1 Q9J        -0.4115
     10 C04        36.8030  -37.5080   -2.6980 C.2       1 Q9J         0.0838
     11 C05        37.0090  -38.8190   -3.1120 C.2       1 Q9J         0.1833
     12 N06        37.5240  -39.1980   -4.3270 N.pl3     1 Q9J        -0.2821
     13 C07        37.5900  -40.5300   -4.9320 C.3       1 Q9J         0.0683
     14 C08        37.9390  -41.6740   -3.9730 C.3       1 Q9J        -0.0217
     15 C09        36.6370  -41.9230   -3.2120 C.3       1 Q9J        -0.0074
     16 C11        36.2370  -41.0200   -5.4400 C.3       1 Q9J         0.0787
     17 O12        36.4200  -42.0590   -6.4010 O.3       1 Q9J        -0.3895
     18 N14        36.6180  -39.6260   -2.0970 N.pl3     1 Q9J        -0.1823
     19 N15        36.1510  -38.9080   -1.0280 N.2       1 Q9J        -0.2288
     20 C16        36.2550  -37.6340   -1.3830 C.2       1 Q9J         0.0328
     21 C18        35.0210  -35.5540   -0.7840 C.ar      1 Q9J        -0.0617
     22 C19        34.6430  -34.5830    0.1250 C.ar      1 Q9J        -0.0463
     23 S21        34.7800  -33.6210    2.7710 S.3       1 Q9J         0.0030
     24 N23        36.2940  -35.6840    3.1860 N.2       1 Q9J        -0.2930
     25 C25        36.3040  -36.7070    0.9140 C.ar      1 Q9J        -0.0459
     26 H1         34.8530  -40.8038   -3.7860 H         1 Q9J         0.0294
     27 H2         34.9386  -42.4612   -4.4732 H         1 Q9J         0.0294
     28 H3         37.4619  -41.3559   -1.3338 H         1 Q9J         0.0632
     29 H4         35.6674  -41.3330   -1.4115 H         1 Q9J         0.0632
     30 H5         35.9432  -34.4368    4.8105 H         1 Q9J         0.1261
     31 H6         37.2250  -35.0601   -1.8966 H         1 Q9J         0.1790
     32 H7         37.5481  -34.3332   -3.4352 H         1 Q9J         0.1790
     33 H8         37.9211  -38.4358   -4.8947 H         1 Q9J         0.1867
     34 H9         38.3211  -40.4874   -5.7528 H         1 Q9J         0.0585
     35 H10        38.7441  -41.3766   -3.2850 H         1 Q9J         0.0292
     36 H11        38.2453  -42.5720   -4.5295 H         1 Q9J         0.0292
     37 H12        36.5573  -42.9829   -2.9288 H         1 Q9J         0.0330
     38 H13        35.6664  -40.1935   -5.8887 H         1 Q9J         0.0617
     39 H14        35.5722  -42.3560   -6.7099 H         1 Q9J         0.2099
     40 H15        34.6700  -35.4925   -1.8078 H         1 Q9J         0.0579
     41 H16        34.0090  -33.7584   -0.1803 H         1 Q9J         0.0575
     42 H17        36.9484  -37.5263    1.2117 H         1 Q9J         0.0587
@<TRIPOS>BOND
     1   15    1 1  
     2    1   16 1  
     3    2   15 1  
     4   18    2 1  
     5   20    3 1  
     6    3   21 ar 
     7    3   25 ar 
     8    6    4 ar 
     9    4   22 ar 
    10    4   23 1  
    11    5   23 1  
    12   24    5 2  
    13    6   24 1  
    14   25    6 ar 
    15    8    7 am 
    16    8    9 2  
    17   10    8 1  
    18   11   10 2  
    19   10   20 1  
    20   11   12 1  
    21   11   18 1  
    22   12   13 1  
    23   13   14 1  
    24   13   16 1  
    25   14   15 1  
    26   16   17 1  
    27   18   19 1  
    28   19   20 2  
    29   21   22 ar 
    30    1   26 1  
    31    1   27 1  
    32    2   28 1  
    33    2   29 1  
    34    5   30 1  
    35    7   31 1  
    36    7   32 1  
    37   12   33 1  
    38   13   34 1  
    39   14   35 1  
    40   14   36 1  
    41   15   37 1  
    42   16   38 1  
    43   17   39 1  
    44   21   40 1  
    45   22   41 1  
    46   25   42 1  
@<TRIPOS>SUBSTRUCTURE
     1 Q9J         1

