### 
### Created by X-TOOL on Mon Aug  2 16:10:23 2021
### 

@<TRIPOS>MOLECULE
6un1_ligand
   43    45     1     0     0
SMALL
GAST_HUCK


@<TRIPOS>ATOM
      1 O7          6.3530   -4.3610   15.4870 O.2       1 TJ7        -0.3388
      2 C15         6.4890   -4.0840   16.6640 C.2       1 TJ7         0.2608
      3 C6          6.5850   -2.6910   17.1740 C.3       1 TJ7         0.2701
      4 O5          7.6250   -2.7530   18.1200 O.3       1 TJ7        -0.3503
      5 C14         8.9480   -3.1050   17.7540 C.3       1 TJ7         0.0378
      6 C           5.2800   -2.3870   17.9420 C.3       1 TJ7         0.1521
      7 S           4.6410   -0.7140   17.8460 S.3       1 TJ7        -0.1187
      8 C3          3.1170   -1.1360   17.0420 C.3       1 TJ7         0.0482
      9 C4          2.7650   -0.1180   15.9710 C.3       1 TJ7        -0.0469
     10 C5          1.9740   -1.1260   18.0550 C.3       1 TJ7        -0.0469
     11 C1          3.4040   -2.5430   16.4650 C.3       1 TJ7         0.1126
     12 C2          2.1760   -3.3420   16.1380 C.2       1 TJ7         0.0618
     13 O1          1.7090   -3.2030   15.0090 O.co2     1 TJ7        -0.5665
     14 O           1.6870   -4.1270   16.9700 O.co2     1 TJ7        -0.5665
     15 N           4.2340   -3.3070   17.4080 N.am      1 TJ7        -0.2344
     16 N1          6.9080   -1.7780   16.0880 N.am      1 TJ7        -0.2488
     17 C7          7.4340   -0.5630   16.2900 C.2       1 TJ7         0.2008
     18 O2          7.6610   -0.1800   17.3930 O.2       1 TJ7        -0.3924
     19 C8          7.7990    0.3260   15.1560 C.3       1 TJ7         0.1209
     20 C9          9.2030    0.7770   15.2240 C.2       1 TJ7         0.0648
     21 O4         10.0820   -0.1130   15.2120 O.co2     1 TJ7        -0.5641
     22 O3          9.4040    1.9980   15.3030 O.co2     1 TJ7        -0.5641
     23 C10         6.7820    1.3370   14.7360 C.2       1 TJ7        -0.0285
     24 C13         6.2360    2.2080   15.6970 C.2       1 TJ7        -0.0697
     25 C12         5.2850    3.0440   15.1000 C.2       1 TJ7        -0.0109
     26 S1          5.0990    2.6450   13.4380 S.3       1 TJ7        -0.0580
     27 C11         6.2920    1.3870   13.4440 C.2       1 TJ7        -0.0101
     28 H1          9.5915   -3.0900   18.6460 H         1 TJ7         0.0522
     29 H2          9.3283   -2.3840   17.0154 H         1 TJ7         0.0522
     30 H3          8.9512   -4.1143   17.3166 H         1 TJ7         0.0522
     31 H4          5.4591   -2.6112   19.0039 H         1 TJ7         0.0716
     32 H5          1.8179   -0.4042   15.4903 H         1 TJ7         0.0245
     33 H6          3.5648   -0.0882   15.2164 H         1 TJ7         0.0245
     34 H7          2.6573    0.8755   16.4307 H         1 TJ7         0.0245
     35 H8          1.0333   -1.3885   17.5489 H         1 TJ7         0.0245
     36 H9          1.8848   -0.1228   18.4974 H         1 TJ7         0.0245
     37 H10         2.1806   -1.8595   18.8482 H         1 TJ7         0.0245
     38 H11         3.9704   -2.4072   15.5318 H         1 TJ7         0.0744
     39 H12         6.7292   -2.0709   15.1487 H         1 TJ7         0.1864
     40 H13         7.8047   -0.3620   14.2978 H         1 TJ7         0.0809
     41 H14         6.5126    2.2287   16.7501 H         1 TJ7         0.0396
     42 H15         4.7407    3.8343   15.6148 H         1 TJ7         0.0714
     43 H16         6.5935    0.7642   12.6031 H         1 TJ7         0.0579
@<TRIPOS>BOND
     1    1    2 2  
     2    2    3 1  
     3    3    4 1  
     4    3    6 1  
     5    3   16 1  
     6    4    5 1  
     7    6    7 1  
     8    6   15 1  
     9    7    8 1  
    10    8    9 1  
    11    8   10 1  
    12    8   11 1  
    13   11   12 1  
    14   11   15 1  
    15   12   13 ar 
    16   12   14 ar 
    17   16   17 am 
    18   17   18 2  
    19   17   19 1  
    20   19   20 1  
    21   19   23 1  
    22   20   21 ar 
    23   20   22 ar 
    24   23   24 1  
    25   23   27 2  
    26   24   25 2  
    27   25   26 1  
    28   26   27 1  
    29   15    2 am 
    30    5   28 1  
    31    5   29 1  
    32    5   30 1  
    33    6   31 1  
    34    9   32 1  
    35    9   33 1  
    36    9   34 1  
    37   10   35 1  
    38   10   36 1  
    39   10   37 1  
    40   11   38 1  
    41   16   39 1  
    42   19   40 1  
    43   24   41 1  
    44   25   42 1  
    45   27   43 1  
@<TRIPOS>SUBSTRUCTURE
     1 TJ7         1

