### 
### Created by X-TOOL on Mon Aug  2 16:10:23 2021
### 

@<TRIPOS>MOLECULE
6un3_ligand
   39    41     1     0     0
SMALL
GAST_HUCK


@<TRIPOS>ATOM
      1 C7         -6.0970   37.0610  -17.0730 C.2       1 XT8         0.2102
      2 O8         -5.9600   36.8010  -15.8870 O.2       1 XT8        -0.3941
      3 C6         -6.1710   38.4680  -17.5960 C.3       1 XT8         0.1638
      4 C5         -4.8510   38.7350  -18.3110 C.3       1 XT8         0.1336
      5 S1         -4.1830   40.3740  -18.1170 S.3       1 XT8        -0.1180
      6 C2         -2.7670   39.8770  -17.1680 C.3       1 XT8         0.0482
      7 C10        -1.5370   39.9020  -18.0650 C.3       1 XT8        -0.0469
      8 C9         -2.5600   40.7460  -15.9500 C.3       1 XT8        -0.0469
      9 C3         -3.1070   38.4410  -16.6870 C.3       1 XT8         0.1126
     10 C11        -1.8860   37.6810  -16.3000 C.2       1 XT8         0.0617
     11 O12        -1.5130   36.8590  -17.1360 O.co2     1 XT8        -0.5666
     12 O13        -1.2840   37.8690  -15.2120 O.co2     1 XT8        -0.5666
     13 N4         -3.8420   37.7610  -17.7770 N.am      1 XT8        -0.2370
     14 N14        -6.4650   39.3740  -16.5100 N.am      1 XT8        -0.2599
     15 C15        -7.2130   40.4470  -16.6610 C.2       1 XT8         0.2021
     16 O16        -7.7150   40.6820  -17.7490 O.2       1 XT8        -0.3922
     17 C17        -7.4860   41.2920  -15.4070 C.3       1 XT8         0.1212
     18 C33        -8.8280   41.9050  -15.6110 C.2       1 XT8         0.0648
     19 O33        -9.8260   41.1690  -15.4960 O.co2     1 XT8        -0.5641
     20 O32        -8.9210   43.0600  -16.0200 O.co2     1 XT8        -0.5641
     21 C28        -6.3580   42.1800  -15.0630 C.2       1 XT8        -0.0285
     22 C32        -5.8830   42.1690  -13.7600 C.2       1 XT8        -0.0101
     23 S31        -4.5500   43.2580  -13.6820 S.3       1 XT8        -0.0580
     24 C30        -4.6590   43.7260  -15.3470 C.2       1 XT8        -0.0109
     25 C29        -5.7080   43.0430  -15.9830 C.2       1 XT8        -0.0697
     26 H1         -6.9867   38.5449  -18.3300 H         1 XT8         0.0833
     27 H2         -5.0040   38.5562  -19.3855 H         1 XT8         0.0726
     28 H3         -0.6540   39.5952  -17.4851 H         1 XT8         0.0245
     29 H4         -1.3858   40.9206  -18.4518 H         1 XT8         0.0245
     30 H5         -1.6824   39.2082  -18.9061 H         1 XT8         0.0245
     31 H6         -1.6742   40.3987  -15.3981 H         1 XT8         0.0245
     32 H7         -3.4451   40.6830  -15.2999 H         1 XT8         0.0245
     33 H8         -2.4099   41.7892  -16.2650 H         1 XT8         0.0245
     34 H9         -3.7608   38.5086  -15.8050 H         1 XT8         0.0742
     35 H10        -6.0847   39.1782  -15.6061 H         1 XT8         0.1886
     36 H11        -7.5827   40.6033  -14.5548 H         1 XT8         0.0809
     37 H12        -6.2805   41.5790  -12.9355 H         1 XT8         0.0579
     38 H13        -4.0051   44.4490  -15.8323 H         1 XT8         0.0714
     39 H14        -5.9829   43.1588  -17.0304 H         1 XT8         0.0396
@<TRIPOS>BOND
     1    1    2 2  
     2    1    3 1  
     3    3    4 1  
     4    3   14 1  
     5    4    5 1  
     6    4   13 1  
     7    5    6 1  
     8    6    7 1  
     9    6    8 1  
    10    6    9 1  
    11    9   10 1  
    12    9   13 1  
    13   10   11 ar 
    14   10   12 ar 
    15   14   15 am 
    16   15   16 2  
    17   15   17 1  
    18   17   18 1  
    19   17   21 1  
    20   18   19 ar 
    21   18   20 ar 
    22   21   22 2  
    23   21   25 1  
    24   22   23 1  
    25   23   24 1  
    26   24   25 2  
    27    1   13 am 
    28    3   26 1  
    29    4   27 1  
    30    7   28 1  
    31    7   29 1  
    32    7   30 1  
    33    8   31 1  
    34    8   32 1  
    35    8   33 1  
    36    9   34 1  
    37   14   35 1  
    38   17   36 1  
    39   22   37 1  
    40   24   38 1  
    41   25   39 1  
@<TRIPOS>SUBSTRUCTURE
     1 XT8         1

