### 
### Created by X-TOOL on Mon Sep 10 21:12:45 2018
### 

@<TRIPOS>MOLECULE
6upj_ligand
   44    46     1     0     0
SMALL
GAST_HUCK


@<TRIPOS>ATOM
      1 CA         -0.3910   18.2260   20.7610 C.2       1 NIU         0.0472
      2 CA2        -1.5590   17.6530   21.3460 C.2       1 NIU         0.2395
      3 OA2        -1.7710   16.4940   21.2540 O.2       1 NIU        -0.4069
      4 OA3        -2.5020   18.3810   21.9930 O.3       1 NIU        -0.2137
      5 CA4        -2.2600   19.7610   22.0620 C.2       1 NIU         0.1251
      6 CA5        -1.1310   20.4070   21.5150 C.2       1 NIU         0.0148
      7 CA6        -0.1860   19.5920   20.8550 C.2       1 NIU         0.0807
      8 OA6         0.9740   20.0970   20.3010 O.3       1 NIU        -0.3393
      9 CB1         0.0220   16.6320   18.7530 C.ar      1 NIU        -0.0369
     10 CB2        -0.3250   17.3520   17.5770 C.ar      1 NIU        -0.0595
     11 CB3        -0.8470   16.6580   16.4670 C.ar      1 NIU        -0.0687
     12 CB4        -1.0470   15.2640   16.5180 C.ar      1 NIU        -0.0690
     13 CB5        -0.7110   14.5580   17.6780 C.ar      1 NIU        -0.0687
     14 CB6        -0.1860   15.2220   18.8000 C.ar      1 NIU        -0.0595
     15 CG1         0.6250   17.3830   19.9550 C.3       1 NIU         0.0123
     16 CG2         1.6480   16.5950   20.7860 C.3       1 NIU        -0.0405
     17 CG3         1.1130   15.4320   21.6200 C.3       1 NIU        -0.0623
     18 CD1        -3.3620   20.5360   22.8040 C.3       1 NIU         0.0205
     19 CD2        -3.9960   21.7450   22.1160 C.3       1 NIU        -0.0374
     20 CD3        -3.4120   22.1280   20.7460 C.3       1 NIU        -0.0497
     21 CD4        -1.9750   22.6960   20.7700 C.3       1 NIU        -0.0493
     22 CD5        -0.9560   21.9070   21.6170 C.3       1 NIU        -0.0311
     23 H1          1.4944   20.5098   20.9802 H         1 NIU         0.2481
     24 H2         -0.1891   18.4266   17.5345 H         1 NIU         0.0556
     25 H3         -1.0975   17.2026   15.5638 H         1 NIU         0.0599
     26 H4         -1.4592   14.7413   15.6625 H         1 NIU         0.0557
     27 H5         -0.8575   13.4845   17.7120 H         1 NIU         0.0599
     28 H6          0.0596   14.6649   19.6969 H         1 NIU         0.0556
     29 H7          1.2491   18.1504   19.4738 H         1 NIU         0.0526
     30 H8          2.1322   17.3027   21.4750 H         1 NIU         0.0300
     31 H9          2.3977   16.1883   20.0914 H         1 NIU         0.0300
     32 H10         1.9439   14.9569   22.1621 H         1 NIU         0.0232
     33 H11         0.6378   14.6937   20.9574 H         1 NIU         0.0232
     34 H12         0.3722   15.8081   22.3410 H         1 NIU         0.0232
     35 H13        -2.9275   20.8921   23.7497 H         1 NIU         0.0503
     36 H14        -4.1719   19.8231   23.0180 H         1 NIU         0.0503
     37 H15        -5.0657   21.5296   21.9769 H         1 NIU         0.0294
     38 H16        -3.8802   22.6108   22.7845 H         1 NIU         0.0294
     39 H17        -3.4097   21.2271   20.1149 H         1 NIU         0.0268
     40 H18        -4.0692   22.8878   20.2981 H         1 NIU         0.0268
     41 H19        -1.6050   22.7220   19.7344 H         1 NIU         0.0277
     42 H20        -2.0236   23.7203   21.1679 H         1 NIU         0.0277
     43 H21         0.0572   22.1650   21.2750 H         1 NIU         0.0335
     44 H22        -1.0738   22.2020   22.6701 H         1 NIU         0.0335
@<TRIPOS>BOND
     1    1   15 1  
     2    1    7 2  
     3    1    2 1  
     4    2    4 1  
     5    2    3 2  
     6    4    5 1  
     7    5   18 1  
     8    5    6 2  
     9    6   22 1  
    10    6    7 1  
    11    7    8 1  
    12   22   21 1  
    13   21   20 1  
    14   20   19 1  
    15   19   18 1  
    16   15   16 1  
    17   15    9 1  
    18    9   14 ar 
    19    9   10 ar 
    20   10   11 ar 
    21   11   12 ar 
    22   12   13 ar 
    23   13   14 ar 
    24   16   17 1  
    25    8   23 1  
    26   10   24 1  
    27   11   25 1  
    28   12   26 1  
    29   13   27 1  
    30   14   28 1  
    31   15   29 1  
    32   16   30 1  
    33   16   31 1  
    34   17   32 1  
    35   17   33 1  
    36   17   34 1  
    37   18   35 1  
    38   18   36 1  
    39   19   37 1  
    40   19   38 1  
    41   20   39 1  
    42   20   40 1  
    43   21   41 1  
    44   21   42 1  
    45   22   43 1  
    46   22   44 1  
@<TRIPOS>SUBSTRUCTURE
     1 NIU         1

