### 
### Created by X-TOOL on Mon Aug  2 16:11:33 2021
### 

@<TRIPOS>MOLECULE
6uvp_ligand
   41    44     1     0     0
SMALL
GAST_HUCK


@<TRIPOS>ATOM
      1 C7         27.0100   55.7470   86.3960 C.2       1 QJJ         0.2211
      2 C6         22.4840   55.0190   89.8630 C.cat     1 QJJ         0.2672
      3 C1         30.4880   55.6480   87.8200 C.ar      1 QJJ        -0.0026
      4 C5         28.2310   55.3140   87.1350 C.ar      1 QJJ         0.1180
      5 C4         30.3630   54.5250   88.6370 C.ar      1 QJJ         0.1658
      6 C3         29.1640   53.8600   88.6640 C.ar      1 QJJ         0.0508
      7 C2         29.3990   56.0750   87.0610 C.ar      1 QJJ        -0.0158
      8 F22        31.3200   54.0380   89.4060 F         1 QJJ        -0.1701
      9 N16        28.1120   54.2500   87.9350 N.ar      1 QJJ        -0.2783
     10 O20        27.1360   56.3330   85.3460 O.2       1 QJJ        -0.3808
     11 N19        25.7880   55.4700   87.0270 N.am      1 QJJ        -0.2812
     12 C14        24.4800   55.8790   86.5870 C.3       1 QJJ         0.0497
     13 C8         23.7400   55.6070   85.3260 C.3       1 QJJ        -0.0199
     14 C12        23.2700   55.0300   86.6320 C.3       1 QJJ         0.0338
     15 C15        21.9750   55.3540   87.3910 C.3       1 QJJ         0.1423
     16 N17        22.1380   54.6210   88.6710 N.pl3     1 QJJ        -0.2461
     17 C10        20.7560   54.7460   86.6950 C.3       1 QJJ         0.0953
     18 O21        19.6140   55.3600   87.2430 O.3       1 QJJ        -0.3743
     19 C9         20.0060   56.7250   87.1910 C.3       1 QJJ         0.0561
     20 C13        21.4640   56.8000   87.6180 C.3       1 QJJ         0.0408
     21 C11        21.5660   57.4800   88.9610 C.3       1 QJJ         0.0052
     22 S23        22.5560   56.7110   90.2830 S.3       1 QJJ        -0.0863
     23 N18        22.7980   54.1410   90.8030 N.pl3     1 QJJ        -0.2667
     24 H1         31.4276   56.1867   87.7751 H         1 QJJ         0.0735
     25 H2         29.0649   52.9869   89.2988 H         1 QJJ         0.0830
     26 H3         29.4570   56.9611   86.4393 H         1 QJJ         0.0752
     27 H4         25.8300   54.9329   87.8695 H         1 QJJ         0.1850
     28 H5         24.3744   56.9054   86.9682 H         1 QJJ         0.0560
     29 H6         24.1785   54.9517   84.5590 H         1 QJJ         0.0293
     30 H7         23.1663   56.4091   84.8386 H         1 QJJ         0.0293
     31 H8         23.4250   53.9499   86.7711 H         1 QJJ         0.0373
     32 H9         21.9416   53.6120   88.6054 H         1 QJJ         0.3217
     33 H10        20.7225   53.6611   86.8732 H         1 QJJ         0.0610
     34 H11        20.8048   54.9386   85.6131 H         1 QJJ         0.0610
     35 H12        19.3835   57.3206   87.8750 H         1 QJJ         0.0564
     36 H13        19.8949   57.1086   86.1661 H         1 QJJ         0.0564
     37 H14        22.0153   57.4449   86.9178 H         1 QJJ         0.0381
     38 H15        20.5409   57.5816   89.3469 H         1 QJJ         0.0378
     39 H16        21.9913   58.4786   88.7825 H         1 QJJ         0.0378
     40 H17        23.0700   54.4665   91.7416 H         1 QJJ         0.3186
     41 H18        22.7702   53.1325   90.5957 H         1 QJJ         0.3186
@<TRIPOS>BOND
     1    1    4 1  
     2    1   10 2  
     3   11    1 am 
     4   16    2 ar 
     5    2   22 1  
     6    2   23 ar 
     7    3    5 ar 
     8    7    3 ar 
     9    4    7 ar 
    10    4    9 ar 
    11    6    5 ar 
    12    5    8 1  
    13    9    6 ar 
    14   12   11 1  
    15   13   12 1  
    16   14   12 1  
    17   14   13 1  
    18   15   14 1  
    19   15   16 1  
    20   15   17 1  
    21   15   20 1  
    22   17   18 1  
    23   18   19 1  
    24   19   20 1  
    25   20   21 1  
    26   21   22 1  
    27    3   24 1  
    28    6   25 1  
    29    7   26 1  
    30   11   27 1  
    31   12   28 1  
    32   13   29 1  
    33   13   30 1  
    34   14   31 1  
    35   16   32 1  
    36   17   33 1  
    37   17   34 1  
    38   19   35 1  
    39   19   36 1  
    40   20   37 1  
    41   21   38 1  
    42   21   39 1  
    43   23   40 1  
    44   23   41 1  
@<TRIPOS>SUBSTRUCTURE
     1 QJJ         1

