### 
### Created by X-TOOL on Mon Aug  2 16:17:01 2021
### 

@<TRIPOS>MOLECULE
6uvv_ligand
   44    46     1     0     0
SMALL
GAST_HUCK


@<TRIPOS>ATOM
      1 O1         25.1670   56.1320   84.5870 O.2       1 QJV        -0.3968
      2 C7         22.5990   55.4800   86.0720 C.3       1 QJV         0.0307
      3 O2         19.2160   55.3860   87.4890 O.3       1 QJV        -0.3743
      4 C6         24.0290   55.0520   86.3750 C.3       1 QJV         0.0568
      5 C1         29.6520   54.2820   88.6050 C.3       1 QJV        -0.0652
      6 N1         26.2770   55.8780   86.5890 N.am      1 QJV        -0.2867
      7 C5         25.1920   55.7410   85.7540 C.2       1 QJV         0.1795
      8 C4         27.5840   56.3240   86.1070 C.3       1 QJV         0.0309
      9 C3         28.6410   56.0200   87.1610 C.3       1 QJV        -0.0330
     10 C2         28.7780   54.5310   87.3800 C.3       1 QJV        -0.0541
     11 C8         21.5270   55.4090   87.1210 C.3       1 QJV         0.1426
     12 N2         21.9070   54.5600   88.2800 N.pl3     1 QJV        -0.2460
     13 C9         22.2910   54.9280   89.5090 C.cat     1 QJV         0.2672
     14 N3         22.5830   54.0130   90.4320 N.pl3     1 QJV        -0.2667
     15 S1         22.4170   56.5790   90.0090 S.3       1 QJV        -0.0863
     16 C10        22.0430   57.5140   88.5090 C.3       1 QJV         0.0052
     17 C11        21.1010   56.8010   87.5410 C.3       1 QJV         0.0409
     18 C12        19.6960   56.6130   88.0800 C.3       1 QJV         0.0561
     19 C13        20.2080   54.8280   86.6120 C.3       1 QJV         0.0954
     20 C14        23.1320   54.1860   85.4940 C.3       1 QJV        -0.0229
     21 H1         22.4188   56.3479   85.4207 H         1 QJV         0.0379
     22 H2         24.2959   54.7258   87.3911 H         1 QJV         0.0542
     23 H3         29.7545   53.1990   88.7683 H         1 QJV         0.0230
     24 H4         29.1858   54.7434   89.4880 H         1 QJV         0.0230
     25 H5         30.6461   54.7239   88.4422 H         1 QJV         0.0230
     26 H6         26.1681   55.6651   87.5600 H         1 QJV         0.1851
     27 H7         27.5555   57.4071   85.9173 H         1 QJV         0.0520
     28 H8         27.8319   55.7949   85.1750 H         1 QJV         0.0520
     29 H9         28.3512   56.4974   88.1087 H         1 QJV         0.0285
     30 H10        29.6080   56.4245   86.8273 H         1 QJV         0.0285
     31 H11        27.7834   54.0901   87.5420 H         1 QJV         0.0263
     32 H12        29.2437   54.0706   86.4962 H         1 QJV         0.0263
     33 H13        21.8697   53.5441   88.1145 H         1 QJV         0.3217
     34 H14        22.8773   54.3075   91.3741 H         1 QJV         0.3186
     35 H15        22.5145   53.0110   90.2036 H         1 QJV         0.3186
     36 H16        22.9884   57.7151   87.9839 H         1 QJV         0.0378
     37 H17        21.5775   58.4661   88.8038 H         1 QJV         0.0378
     38 H18        21.0486   57.4303   86.6403 H         1 QJV         0.0381
     39 H19        19.7131   56.5303   89.1767 H         1 QJV         0.0564
     40 H20        19.0555   57.4575   87.7859 H         1 QJV         0.0564
     41 H21        20.0238   55.1318   85.5710 H         1 QJV         0.0610
     42 H22        20.2140   53.7300   86.6780 H         1 QJV         0.0610
     43 H23        23.3322   54.1071   84.4153 H         1 QJV         0.0298
     44 H24        22.7591   53.2216   85.8692 H         1 QJV         0.0298
@<TRIPOS>BOND
     1    7    1 2  
     2    2    4 1  
     3   11    2 1  
     4    2   20 1  
     5    3   18 1  
     6   19    3 1  
     7    4    7 1  
     8   20    4 1  
     9   10    5 1  
    10    7    6 am 
    11    6    8 1  
    12    8    9 1  
    13    9   10 1  
    14   11   12 1  
    15   11   17 1  
    16   11   19 1  
    17   12   13 ar 
    18   13   14 ar 
    19   13   15 1  
    20   15   16 1  
    21   16   17 1  
    22   17   18 1  
    23    2   21 1  
    24    4   22 1  
    25    5   23 1  
    26    5   24 1  
    27    5   25 1  
    28    6   26 1  
    29    8   27 1  
    30    8   28 1  
    31    9   29 1  
    32    9   30 1  
    33   10   31 1  
    34   10   32 1  
    35   12   33 1  
    36   14   34 1  
    37   14   35 1  
    38   16   36 1  
    39   16   37 1  
    40   17   38 1  
    41   18   39 1  
    42   18   40 1  
    43   19   41 1  
    44   19   42 1  
    45   20   43 1  
    46   20   44 1  
@<TRIPOS>SUBSTRUCTURE
     1 QJV         1

