### 
### Created by X-TOOL on Mon Aug  2 16:17:01 2021
### 

@<TRIPOS>MOLECULE
6uvy_ligand
   45    48     1     0     0
SMALL
GAST_HUCK


@<TRIPOS>ATOM
      1 O1         25.1770   56.0630   84.9920 O.2       1 QJP        -0.3968
      2 C7         24.1280   54.9170   86.7860 C.3       1 QJP         0.0568
      3 O2         19.3660   55.3250   88.0600 O.3       1 QJP        -0.3743
      4 C6         25.2490   55.6200   86.1370 C.2       1 QJP         0.1795
      5 C1         29.8000   54.3260   88.9550 C.3       1 QJP        -0.0621
      6 N1         26.3590   55.7270   86.9490 N.am      1 QJP        -0.2864
      7 C5         27.6060   56.2620   86.4480 C.3       1 QJP         0.0340
      8 C4         28.6370   56.1650   87.5350 C.3       1 QJP        -0.0180
      9 C3         30.0690   56.0870   87.0760 C.3       1 QJP        -0.0452
     10 C2         29.3840   54.8670   87.6150 C.3       1 QJP        -0.0389
     11 C11        22.4800   54.8370   89.9640 C.cat     1 QJP         0.2672
     12 C8         23.2190   54.0290   85.9730 C.3       1 QJP        -0.0229
     13 C14        19.9090   56.5200   88.6660 C.3       1 QJP         0.0561
     14 C15        20.3280   54.7630   87.1530 C.3       1 QJP         0.0954
     15 C12        22.3050   57.4110   88.9010 C.3       1 QJP         0.0052
     16 C9         22.6920   55.3250   86.5180 C.3       1 QJP         0.0307
     17 C13        21.2810   56.7160   88.0290 C.3       1 QJP         0.0409
     18 C10        21.6670   55.3140   87.6100 C.3       1 QJP         0.1426
     19 N2         22.0570   54.4730   88.7620 N.pl3     1 QJP        -0.2460
     20 N3         22.8030   53.9230   90.8830 N.pl3     1 QJP        -0.2667
     21 S1         22.6210   56.4870   90.4230 S.3       1 QJP        -0.0863
     22 H1         24.4290   54.6147   87.7999 H         1 QJP         0.0542
     23 H2         30.3324   53.3734   88.8166 H         1 QJP         0.0233
     24 H3         28.9078   54.1603   89.5766 H         1 QJP         0.0233
     25 H4         30.4642   55.0484   89.4520 H         1 QJP         0.0233
     26 H5         26.3005   55.4291   87.9018 H         1 QJP         0.1851
     27 H6         27.4689   57.3146   86.1596 H         1 QJP         0.0523
     28 H7         27.9338   55.6817   85.5729 H         1 QJP         0.0523
     29 H8         28.3414   56.7250   88.4344 H         1 QJP         0.0323
     30 H9         30.8618   56.5765   87.6607 H         1 QJP         0.0271
     31 H10        30.3080   56.1557   86.0045 H         1 QJP         0.0271
     32 H11        29.1202   54.0364   86.9438 H         1 QJP         0.0302
     33 H12        22.8670   53.0745   86.3913 H         1 QJP         0.0298
     34 H13        23.3860   53.9162   84.8916 H         1 QJP         0.0298
     35 H14        20.0060   56.3888   89.7538 H         1 QJP         0.0564
     36 H15        19.2617   57.3845   88.4572 H         1 QJP         0.0564
     37 H16        20.1138   55.0748   86.1201 H         1 QJP         0.0610
     38 H17        20.3209   53.6647   87.2135 H         1 QJP         0.0610
     39 H18        21.9309   58.4119   89.1623 H         1 QJP         0.0378
     40 H19        23.2461   57.5064   88.3395 H         1 QJP         0.0378
     41 H20        22.4843   56.1632   85.8366 H         1 QJP         0.0379
     42 H21        21.1652   57.3367   87.1283 H         1 QJP         0.0381
     43 H22        21.9902   53.4568   88.6079 H         1 QJP         0.3217
     44 H23        23.1303   54.2211   91.8130 H         1 QJP         0.3186
     45 H24        22.7248   52.9201   90.6616 H         1 QJP         0.3186
@<TRIPOS>BOND
     1    4    1 2  
     2    2    4 1  
     3   12    2 1  
     4   16    2 1  
     5    3   13 1  
     6   14    3 1  
     7    4    6 am 
     8   10    5 1  
     9    6    7 1  
    10    7    8 1  
    11    8    9 1  
    12    8   10 1  
    13   10    9 1  
    14   11   19 ar 
    15   11   20 ar 
    16   21   11 1  
    17   16   12 1  
    18   13   17 1  
    19   18   14 1  
    20   17   15 1  
    21   15   21 1  
    22   16   18 1  
    23   17   18 1  
    24   18   19 1  
    25    2   22 1  
    26    5   23 1  
    27    5   24 1  
    28    5   25 1  
    29    6   26 1  
    30    7   27 1  
    31    7   28 1  
    32    8   29 1  
    33    9   30 1  
    34    9   31 1  
    35   10   32 1  
    36   12   33 1  
    37   12   34 1  
    38   13   35 1  
    39   13   36 1  
    40   14   37 1  
    41   14   38 1  
    42   15   39 1  
    43   15   40 1  
    44   16   41 1  
    45   17   42 1  
    46   19   43 1  
    47   20   44 1  
    48   20   45 1  
@<TRIPOS>SUBSTRUCTURE
     1 QJP         1

