### 
### Created by X-TOOL on Mon Aug  2 16:17:02 2021
### 

@<TRIPOS>MOLECULE
6uwp_ligand
   54    58     1     0     0
SMALL
GAST_HUCK


@<TRIPOS>ATOM
      1 C7        -15.1820  -11.4570    1.6480 C.3       1 QKA        -0.0452
      2 C6        -17.5420  -18.2970    1.4450 C.3       1 QKA        -0.0230
      3 C1        -14.7370  -25.6110    0.1470 C.ar      1 QKA         0.0145
      4 N1        -16.8220  -23.9480    0.9410 N.ar      1 QKA        -0.2527
      5 C5        -16.1130  -16.2700    2.1410 C.2       1 QKA         0.1795
      6 C4        -14.5880  -19.3190   -1.1070 C.cat     1 QKA         0.2671
      7 C3        -15.4820  -23.5770    0.9150 C.ar      1 QKA         0.1958
      8 C2        -17.0790  -25.1940    0.4900 C.ar      1 QKA         0.0145
      9 O         -16.4880  -16.2820    3.3180 O.2       1 QKA        -0.3968
     10 N5        -15.5090  -15.2000    1.5560 N.am      1 QKA        -0.2864
     11 C18       -15.3340  -13.9550    2.2980 C.3       1 QKA         0.0340
     12 C15       -14.8530  -12.8830    1.3310 C.3       1 QKA        -0.0180
     13 C14       -15.8770  -12.1750    0.4780 C.3       1 QKA        -0.0389
     14 C17       -15.5260  -11.7860   -0.9340 C.3       1 QKA        -0.0621
     15 C11       -16.2690  -17.4400    1.2670 C.3       1 QKA         0.0568
     16 C12       -16.1920  -18.8430    1.8750 C.3       1 QKA         0.0305
     17 C16       -15.5090  -19.9770    1.1100 C.3       1 QKA         0.1397
     18 N2        -15.5730  -19.7500   -0.3360 N.pl3     1 QKA        -0.2463
     19 C13       -14.0850  -20.2500    1.6520 C.3       1 QKA         0.0379
     20 C10       -13.0360  -19.2500    1.1780 C.3       1 QKA         0.0049
     21 S         -12.9360  -19.0220   -0.6170 S.3       1 QKA        -0.0863
     22 N4        -14.7980  -19.0760   -2.4280 N.pl3     1 QKA        -0.2667
     23 C9        -16.2550  -21.2970    1.4520 C.3       1 QKA         0.0816
     24 N3        -15.2170  -22.2730    1.2110 N.pl3     1 QKA        -0.2695
     25 C8        -13.8560  -21.7180    1.2020 C.3       1 QKA         0.0422
     26 N         -14.4150  -24.3310    0.5600 N.ar      1 QKA        -0.2527
     27 C         -16.0500  -26.0410    0.0750 C.ar      1 QKA        -0.0228
     28 H1        -14.4459  -10.6642    1.4489 H         1 QKA         0.0271
     29 H2        -15.7484  -11.2113    2.5584 H         1 QKA         0.0271
     30 H3        -18.0500  -18.7170    0.5643 H         1 QKA         0.0298
     31 H4        -18.2900  -18.0202    2.2025 H         1 QKA         0.0298
     32 H5        -13.9411  -26.2941   -0.1270 H         1 QKA         0.0900
     33 H6        -18.1043  -25.5436    0.4493 H         1 QKA         0.0900
     34 H7        -15.1833  -15.2669    0.6129 H         1 QKA         0.1851
     35 H8        -14.5886  -14.0986    3.0941 H         1 QKA         0.0523
     36 H9        -16.2924  -13.6503    2.7436 H         1 QKA         0.0523
     37 H10       -13.8710  -13.1526    0.9151 H         1 QKA         0.0323
     38 H11       -16.9408  -12.4479    0.5393 H         1 QKA         0.0302
     39 H12       -16.3863  -11.2839   -1.4006 H         1 QKA         0.0233
     40 H13       -15.2710  -12.6877   -1.5102 H         1 QKA         0.0233
     41 H14       -14.6644  -11.1023   -0.9226 H         1 QKA         0.0233
     42 H15       -15.8520  -17.2357    0.2698 H         1 QKA         0.0542
     43 H16       -15.9775  -18.9583    2.9477 H         1 QKA         0.0379
     44 H17       -16.4729  -19.9450   -0.7975 H         1 QKA         0.3217
     45 H18       -14.0950  -20.2049    2.7510 H         1 QKA         0.0378
     46 H19       -12.0533  -19.5955    1.5316 H         1 QKA         0.0378
     47 H20       -13.2670  -18.2749    1.6317 H         1 QKA         0.0378
     48 H21       -14.0242  -18.7406   -3.0193 H         1 QKA         0.3186
     49 H22       -15.7309  -19.2272   -2.8375 H         1 QKA         0.3186
     50 H23       -17.1193  -21.4553    0.7903 H         1 QKA         0.0577
     51 H24       -16.5880  -21.3125    2.5002 H         1 QKA         0.0577
     52 H25       -13.2046  -22.2528    1.9088 H         1 QKA         0.0531
     53 H26       -13.4167  -21.7604    0.1944 H         1 QKA         0.0531
     54 H27       -16.2787  -27.0313   -0.3020 H         1 QKA         0.0665
@<TRIPOS>BOND
     1   12    1 1  
     2   13    1 1  
     3   15    2 1  
     4   16    2 1  
     5   26    3 ar 
     6    3   27 ar 
     7    7    4 ar 
     8    4    8 ar 
     9    5    9 2  
    10    5   10 am 
    11   15    5 1  
    12   18    6 ar 
    13    6   21 1  
    14    6   22 ar 
    15   24    7 1  
    16    7   26 ar 
    17    8   27 ar 
    18   10   11 1  
    19   11   12 1  
    20   12   13 1  
    21   13   14 1  
    22   16   15 1  
    23   17   16 1  
    24   17   18 1  
    25   17   19 1  
    26   23   17 1  
    27   19   20 1  
    28   19   25 1  
    29   20   21 1  
    30   23   24 1  
    31   24   25 1  
    32    1   28 1  
    33    1   29 1  
    34    2   30 1  
    35    2   31 1  
    36    3   32 1  
    37    8   33 1  
    38   10   34 1  
    39   11   35 1  
    40   11   36 1  
    41   12   37 1  
    42   13   38 1  
    43   14   39 1  
    44   14   40 1  
    45   14   41 1  
    46   15   42 1  
    47   16   43 1  
    48   18   44 1  
    49   19   45 1  
    50   20   46 1  
    51   20   47 1  
    52   22   48 1  
    53   22   49 1  
    54   23   50 1  
    55   23   51 1  
    56   25   52 1  
    57   25   53 1  
    58   27   54 1  
@<TRIPOS>SUBSTRUCTURE
     1 QKA         1

