### 
### Created by X-TOOL on Mon Aug  2 16:17:02 2021
### 

@<TRIPOS>MOLECULE
6uwv_ligand
   60    64     1     0     0
SMALL
GAST_HUCK


@<TRIPOS>ATOM
      1 C7         29.5980   55.8000   87.2130 C.3       1 QK7        -0.0450
      2 C6         23.6330   54.3940   86.4140 C.3       1 QK7        -0.0394
      3 C1         15.4160   54.5020   88.0430 C.ar      1 QK7        -0.0228
      4 C5         22.3150   55.0520   89.9480 C.cat     1 QK7         0.2671
      5 C4         17.9490   55.3090   87.8990 C.ar      1 QK7         0.1958
      6 C3         16.3230   53.8880   87.2000 C.ar      1 QK7         0.0145
      7 C2         15.8880   55.5660   88.7880 C.ar      1 QK7         0.0145
      8 C8         19.8010   56.8370   88.6250 C.3       1 QK7         0.0422
      9 C9         20.2970   55.0980   86.9900 C.3       1 QK7         0.0814
     10 C10        22.1950   57.6650   89.0520 C.3       1 QK7         0.0049
     11 C11        22.7140   55.5900   86.5790 C.3       1 QK7         0.0143
     12 C12        21.2220   57.0300   88.0600 C.3       1 QK7         0.0378
     13 C13        24.1840   55.7050   86.9370 C.3       1 QK7        -0.0045
     14 C14        29.2900   54.4640   87.8400 C.3       1 QK7        -0.0386
     15 C15        28.2230   55.5340   87.7970 C.3       1 QK7        -0.0147
     16 C16        21.6130   55.6160   87.6230 C.3       1 QK7         0.1376
     17 C17        29.8910   54.1100   89.1600 C.3       1 QK7        -0.0621
     18 C18        25.1670   56.2190   84.6440 C.3       1 QK7        -0.0358
     19 C19        24.6200   58.0900   86.1880 C.3       1 QK7        -0.0358
     20 C20        27.0340   55.3730   86.8610 C.3       1 QK7         0.0514
     21 C21        25.0760   56.6150   86.1340 C.3       1 QK7         0.0672
     22 N22        17.1640   55.9900   88.7520 N.ar      1 QK7        -0.2527
     23 N23        17.6130   54.2760   87.1090 N.ar      1 QK7        -0.2527
     24 N24        21.9460   54.7060   88.7250 N.pl3     1 QK7        -0.2464
     25 N25        19.2660   55.7320   87.8290 N.pl3     1 QK7        -0.2695
     26 N26        22.5970   54.1060   90.9020 N.pl3     1 QK7        -0.2667
     27 O27        26.4200   56.6510   86.6960 O.3       1 QK7        -0.3733
     28 S28        22.4930   56.6950   90.5510 S.3       1 QK7        -0.0863
     29 H1         29.7268   55.8797   86.1235 H         1 QK7         0.0271
     30 H2         30.2833   56.4986   87.7154 H         1 QK7         0.0271
     31 H3         23.9063   54.0453   85.4072 H         1 QK7         0.0273
     32 H4         23.5373   53.5299   87.0879 H         1 QK7         0.0273
     33 H5         14.3878   54.1664   88.1160 H         1 QK7         0.0665
     34 H6         15.9847   53.0608   86.5866 H         1 QK7         0.0900
     35 H7         15.1926   56.0868   89.4362 H         1 QK7         0.0900
     36 H8         19.1973   57.7467   88.4910 H         1 QK7         0.0531
     37 H9         19.8344   56.5729   89.6923 H         1 QK7         0.0531
     38 H10        20.2346   54.0012   87.0451 H         1 QK7         0.0577
     39 H11        20.2078   55.4181   85.9414 H         1 QK7         0.0577
     40 H12        21.7885   58.6421   89.3521 H         1 QK7         0.0378
     41 H13        23.1584   57.8098   88.5412 H         1 QK7         0.0378
     42 H14        22.3457   56.1078   85.6811 H         1 QK7         0.0354
     43 H15        21.1795   57.6858   87.1779 H         1 QK7         0.0378
     44 H16        24.4866   55.7639   87.9929 H         1 QK7         0.0333
     45 H17        29.2059   53.5648   87.2120 H         1 QK7         0.0302
     46 H18        27.9043   56.0374   88.7217 H         1 QK7         0.0326
     47 H19        30.6449   53.3213   89.0199 H         1 QK7         0.0233
     48 H20        29.1028   53.7478   89.8365 H         1 QK7         0.0233
     49 H21        30.3682   55.0000   89.5962 H         1 QK7         0.0233
     50 H22        25.8307   56.9209   84.1180 H         1 QK7         0.0257
     51 H23        24.1643   56.2548   84.1932 H         1 QK7         0.0257
     52 H24        25.5709   55.1993   84.5596 H         1 QK7         0.0257
     53 H25        24.5426   58.4117   87.2371 H         1 QK7         0.0257
     54 H26        23.6386   58.1885   85.7010 H         1 QK7         0.0257
     55 H27        25.3540   58.7202   85.6645 H         1 QK7         0.0257
     56 H28        26.3115   54.6661   87.2949 H         1 QK7         0.0563
     57 H29        27.3760   54.9956   85.8860 H         1 QK7         0.0563
     58 H30        21.8866   53.6970   88.5269 H         1 QK7         0.3217
     59 H31        22.8825   54.3975   91.8477 H         1 QK7         0.3186
     60 H32        22.5231   53.1047   90.6720 H         1 QK7         0.3186
@<TRIPOS>BOND
     1   14    1 1  
     2   15    1 1  
     3   11    2 1  
     4   13    2 1  
     5    6    3 ar 
     6    7    3 ar 
     7   24    4 ar 
     8    4   26 ar 
     9    4   28 1  
    10    5   22 ar 
    11    5   23 ar 
    12   25    5 1  
    13   23    6 ar 
    14   22    7 ar 
    15   12    8 1  
    16    8   25 1  
    17   16    9 1  
    18    9   25 1  
    19   12   10 1  
    20   10   28 1  
    21   13   11 1  
    22   11   16 1  
    23   16   12 1  
    24   21   13 1  
    25   15   14 1  
    26   14   17 1  
    27   20   15 1  
    28   16   24 1  
    29   21   18 1  
    30   21   19 1  
    31   27   20 1  
    32   21   27 1  
    33    1   29 1  
    34    1   30 1  
    35    2   31 1  
    36    2   32 1  
    37    3   33 1  
    38    6   34 1  
    39    7   35 1  
    40    8   36 1  
    41    8   37 1  
    42    9   38 1  
    43    9   39 1  
    44   10   40 1  
    45   10   41 1  
    46   11   42 1  
    47   12   43 1  
    48   13   44 1  
    49   14   45 1  
    50   15   46 1  
    51   17   47 1  
    52   17   48 1  
    53   17   49 1  
    54   18   50 1  
    55   18   51 1  
    56   18   52 1  
    57   19   53 1  
    58   19   54 1  
    59   19   55 1  
    60   20   56 1  
    61   20   57 1  
    62   24   58 1  
    63   26   59 1  
    64   26   60 1  
@<TRIPOS>SUBSTRUCTURE
     1 QK7         1

