### 
### Created by X-TOOL on Mon Aug  2 16:17:02 2021
### 

@<TRIPOS>MOLECULE
6v1c_ligand
   51    52     1     0     0
SMALL
GAST_HUCK


@<TRIPOS>ATOM
      1 CAN        14.7450   -2.3600   -9.2180 C.3       1 MOL         0.0257
      2 CAM        13.5370   -1.5210   -9.4990 C.2       1 MOL         0.1733
      3 OAO        12.5500   -1.9710  -10.0740 O.2       1 MOL        -0.3974
      4 N2         13.5950   -0.2530   -9.0860 N.am      1 MOL        -0.2766
      5 C2         12.4820    0.6680   -9.2420 C.3       1 MOL         0.1210
      6 C3         12.8410    1.8060  -10.1950 C.3       1 MOL         0.1111
      7 O3         13.2160    1.2740  -11.4670 O.3       1 MOL        -0.3867
      8 C4         11.6270    2.6980  -10.3400 C.3       1 MOL         0.1116
      9 O4         11.9190    3.8000  -11.1860 O.3       1 MOL        -0.3865
     10 C5         11.2220    3.2190   -8.9660 C.3       1 MOL         0.1130
     11 C6          9.9660    4.0560   -9.0000 C.3       1 MOL         0.0730
     12 O6          8.8340    3.2930   -9.3710 O.3       1 MOL        -0.3924
     13 O5         10.9430    2.1220   -8.0830 O.3       1 MOL        -0.3408
     14 C1         12.0200    1.2280   -7.8920 C.3       1 MOL         0.1854
     15 O1         13.0930    1.8710   -7.2160 O.3       1 MOL        -0.3404
     16 CAS        12.8760    2.1350   -5.8160 C.3       1 MOL         0.1184
     17 CAR        13.3560    3.5280   -5.4350 C.3       1 MOL         0.1144
     18 OAX        12.7790    4.5360   -6.2650 O.3       1 MOL        -0.3864
     19 CAQ        14.8700    3.5780   -5.5460 C.3       1 MOL         0.1339
     20 OAW        15.3650    4.8520   -5.1420 O.3       1 MOL        -0.3841
     21 CAP        15.4850    2.4820   -4.6960 C.3       1 MOL         0.1854
     22 OAV        16.8430    2.5360   -4.8520 O.3       1 MOL        -0.3649
     23 OAY        15.0080    1.2180   -5.1480 O.3       1 MOL        -0.3407
     24 CAT        13.5910    1.0830   -4.9790 C.3       1 MOL         0.1134
     25 CAU        13.2470   -0.3440   -5.3280 C.3       1 MOL         0.0730
     26 OAZ        13.8530   -1.2380   -4.4020 O.3       1 MOL        -0.3924
     27 H1         15.5004   -1.7526   -8.6979 H         1 MOL         0.0467
     28 H2         15.1621   -2.7313  -10.1657 H         1 MOL         0.0467
     29 H3         14.4600   -3.2124   -8.5839 H         1 MOL         0.0467
     30 H4         14.4349    0.0750   -8.6536 H         1 MOL         0.1857
     31 H5         11.6426    0.1088   -9.6811 H         1 MOL         0.0633
     32 H6         13.6793    2.3860   -9.7817 H         1 MOL         0.0645
     33 H7         13.4378    1.9870  -12.0543 H         1 MOL         0.2100
     34 H8         10.7990    2.1171  -10.7723 H         1 MOL         0.0647
     35 H9         12.1726    3.4806  -12.0440 H         1 MOL         0.2100
     36 H10        12.0496    3.8216   -8.5636 H         1 MOL         0.0647
     37 H11        10.1004    4.8698   -9.7277 H         1 MOL         0.0584
     38 H12         9.7955    4.4824   -8.0004 H         1 MOL         0.0584
     39 H13         8.9709    2.9255  -10.2363 H         1 MOL         0.2095
     40 H14        11.6718    0.3909   -7.2691 H         1 MOL         0.0935
     41 H15        11.7967    2.0729   -5.6128 H         1 MOL         0.0651
     42 H16        13.0657    3.7264   -4.3927 H         1 MOL         0.0648
     43 H17        13.1018    5.3883   -5.9970 H         1 MOL         0.2100
     44 H18        15.1511    3.4103   -6.5962 H         1 MOL         0.0671
     45 H19        16.3118    4.8616   -5.2190 H         1 MOL         0.2101
     46 H20        15.2189    2.6270   -3.6386 H         1 MOL         0.0935
     47 H21        17.1620    3.3787   -4.5508 H         1 MOL         0.2126
     48 H22        13.3292    1.2555   -3.9246 H         1 MOL         0.0647
     49 H23        13.6123   -0.5681   -6.3411 H         1 MOL         0.0584
     50 H24        12.1551   -0.4726   -5.2952 H         1 MOL         0.0584
     51 H25        14.7964   -1.1299   -4.4302 H         1 MOL         0.2095
@<TRIPOS>BOND
     1    1    2 1  
     2    2    3 2  
     3    2    4 am 
     4    4    5 1  
     5    5    6 1  
     6    5   14 1  
     7    6    7 1  
     8    6    8 1  
     9    8    9 1  
    10    8   10 1  
    11   10   11 1  
    12   10   13 1  
    13   11   12 1  
    14   13   14 1  
    15   14   15 1  
    16   15   16 1  
    17   16   17 1  
    18   16   24 1  
    19   17   18 1  
    20   17   19 1  
    21   19   20 1  
    22   19   21 1  
    23   21   22 1  
    24   21   23 1  
    25   23   24 1  
    26   24   25 1  
    27   25   26 1  
    28    1   27 1  
    29    1   28 1  
    30    1   29 1  
    31    4   30 1  
    32    5   31 1  
    33    6   32 1  
    34    7   33 1  
    35    8   34 1  
    36    9   35 1  
    37   10   36 1  
    38   11   37 1  
    39   11   38 1  
    40   12   39 1  
    41   14   40 1  
    42   16   41 1  
    43   17   42 1  
    44   18   43 1  
    45   19   44 1  
    46   20   45 1  
    47   21   46 1  
    48   22   47 1  
    49   24   48 1  
    50   25   49 1  
    51   25   50 1  
    52   26   51 1  
@<TRIPOS>SUBSTRUCTURE
     1 MOL         1

