### 
### Created by X-TOOL on Mon Aug  2 16:11:33 2021
### 

@<TRIPOS>MOLECULE
6v5l_ligand
   40    42     1     0     0
SMALL
GAST_HUCK


@<TRIPOS>ATOM
      1 C5         10.4120    1.4000   -4.8790 C.ar      1 QPD        -0.0783
      2 O2          9.0190    5.9040  -10.9920 O.2       1 QPD        -0.3880
      3 C16        10.1590    2.2690  -14.4440 C.ar      1 QPD        -0.0679
      4 C14        10.5380    3.5140  -12.4160 C.ar      1 QPD         0.0245
      5 C8         10.8300    3.7760   -8.4810 C.2       1 QPD         0.2162
      6 C4         10.7670    2.0890   -6.0320 C.ar      1 QPD        -0.0730
      7 N1          9.1460    5.1000   -5.8730 N.pl3     1 QPD        -0.2700
      8 C3         10.4770    4.1610   -7.2570 C.2       1 QPD         0.0548
      9 O1         11.0520    2.5930   -8.7330 O.2       1 QPD        -0.3978
     10 C2          9.7810    5.2700   -7.0280 C.2       1 QPD         0.0494
     11 C7          9.0740    3.2840   -4.2780 C.ar      1 QPD        -0.0418
     12 C12         8.9340    4.6800  -11.0940 C.2       1 QPD         0.2348
     13 C18        12.1500    3.6010  -14.2030 C.ar      1 QPD        -0.0679
     14 C6          9.5500    2.0130   -3.9800 C.ar      1 QPD        -0.0756
     15 C11        10.1830    3.7970  -11.1030 C.3       1 QPD         0.1242
     16 C15         9.7450    2.6620  -13.1750 C.ar      1 QPD        -0.0525
     17 C17        11.3620    2.7370  -14.9560 C.ar      1 QPD        -0.0684
     18 C19        11.7360    3.9910  -12.9360 C.ar      1 QPD        -0.0525
     19 C4A        10.2770    3.3080   -6.2580 C.ar      1 QPD        -0.0082
     20 C7A         9.4460    3.8950   -5.3990 C.ar      1 QPD         0.0691
     21 N9         10.9800    4.7730   -9.3650 N.am      1 QPD        -0.2563
     22 N10        11.2780    4.4920  -10.4100 N.4       1 QPD         0.3881
     23 N13         7.7820    4.0210  -11.1840 N.am      1 QPD        -0.2946
     24 H1         10.7994    0.4062   -4.6858 H         1 QPD         0.0519
     25 H2          9.5432    1.5983  -15.0322 H         1 QPD         0.0600
     26 H3         11.4426    1.6352   -6.7480 H         1 QPD         0.0537
     27 H4          8.5255    5.7867   -5.4210 H         1 QPD         0.2319
     28 H5          9.7390    6.1514   -7.6662 H         1 QPD         0.1063
     29 H6          8.3959    3.7801   -3.5931 H         1 QPD         0.0548
     30 H7         13.0868    3.9698  -14.6048 H         1 QPD         0.0600
     31 H8          9.2547    1.5112   -3.0656 H         1 QPD         0.0533
     32 H9          9.9662    2.8549  -10.5781 H         1 QPD         0.1269
     33 H10         8.8024    2.3030  -12.7779 H         1 QPD         0.0563
     34 H11        11.6871    2.4288  -15.9431 H         1 QPD         0.0561
     35 H12        12.3479    4.6685  -12.3515 H         1 QPD         0.0563
     36 H13        10.8325    5.7270   -9.1041 H         1 QPD         0.2363
     37 H14        11.5133    5.3281  -10.9214 H         1 QPD         0.2323
     38 H15        12.0814    3.8845  -10.3712 H         1 QPD         0.2323
     39 H16         7.7811    3.0243  -11.2649 H         1 QPD         0.1818
     40 H17         6.9168    4.5223  -11.1708 H         1 QPD         0.1818
@<TRIPOS>BOND
     1    6    1 ar 
     2    1   14 ar 
     3   12    2 2  
     4   16    3 ar 
     5    3   17 ar 
     6   15    4 1  
     7    4   16 ar 
     8    4   18 ar 
     9    5    8 1  
    10    5    9 2  
    11   21    5 am 
    12   19    6 ar 
    13   10    7 1  
    14   20    7 1  
    15    8   10 2  
    16    8   19 1  
    17   11   14 ar 
    18   20   11 ar 
    19   15   12 1  
    20   12   23 am 
    21   13   17 ar 
    22   18   13 ar 
    23   22   15 1  
    24   19   20 ar 
    25   21   22 1  
    26    1   24 1  
    27    3   25 1  
    28    6   26 1  
    29    7   27 1  
    30   10   28 1  
    31   11   29 1  
    32   13   30 1  
    33   14   31 1  
    34   15   32 1  
    35   16   33 1  
    36   17   34 1  
    37   18   35 1  
    38   21   36 1  
    39   22   37 1  
    40   22   38 1  
    41   23   39 1  
    42   23   40 1  
@<TRIPOS>SUBSTRUCTURE
     1 QPD         1

