### 
### Created by X-TOOL on Mon Sep 10 21:12:44 2018
### 

@<TRIPOS>MOLECULE
7abp_ligand
   23    23     1     0     0
SMALL
GAST_HUCK


@<TRIPOS>ATOM
      1 C1         14.3010   57.1260   55.2250 C.3       1 FCA         0.1853
      2 C2         12.8400   57.2990   54.8580 C.3       1 FCA         0.1339
      3 C3         12.3730   56.4280   53.7660 C.3       1 FCB         0.1140
      4 C4         13.2290   56.6080   52.4870 C.3       1 FCA         0.1095
      5 C5         14.6900   56.3210   52.8850 C.3       1 FCA         0.0873
      6 C6         15.7070   56.7590   51.8240 C.3       1 FCA        -0.0361
      7 O1         14.4840   55.9390   55.9190 O.3       1 FCA        -0.3649
      8 O2         12.0450   57.0330   56.0670 O.3       1 FCA        -0.3841
      9 O3         11.0180   56.7380   53.4310 O.3       1 FCB        -0.3864
     10 O4         13.0450   57.9030   51.8870 O.3       1 FCA        -0.3866
     11 O5         15.0850   57.0690   54.0160 O.3       1 FCA        -0.3433
     12 H1         14.6283   57.9732   55.8455 H         1 FCA         0.0935
     13 H2         12.6863   58.3424   54.5454 H         1 FCA         0.0671
     14 H3         12.4372   55.3815   54.0987 H         1 FCA         0.0648
     15 H4         12.9169   55.8566   51.7468 H         1 FCA         0.0646
     16 H5         14.7893   55.2435   53.0830 H         1 FCA         0.0621
     17 H6         16.7239   56.5253   52.1723 H         1 FCA         0.0255
     18 H7         15.6172   57.8422   51.6551 H         1 FCA         0.0255
     19 H8         15.5094   56.2236   50.8836 H         1 FCA         0.0255
     20 H9         15.4043   55.8363   56.1314 H         1 FCA         0.2126
     21 H10        11.1291   57.2105   55.8878 H         1 FCA         0.2101
     22 H11        10.4711   56.6349   54.2009 H         1 FCA         0.2100
     23 H12        12.1289   58.0205   51.6647 H         1 FCA         0.2100
@<TRIPOS>BOND
     1    1    2 1  
     2    1    7 1  
     3    1   11 1  
     4    2    3 1  
     5    2    8 1  
     6    3    4 1  
     7    3    9 1  
     8    4    5 1  
     9    4   10 1  
    10    5    6 1  
    11    5   11 1  
    12    1   12 1  
    13    2   13 1  
    14    3   14 1  
    15    4   15 1  
    16    5   16 1  
    17    6   17 1  
    18    6   18 1  
    19    6   19 1  
    20    7   20 1  
    21    8   21 1  
    22    9   22 1  
    23   10   23 1  
@<TRIPOS>SUBSTRUCTURE
     1 FCA         1

