### 
### Created by X-TOOL on Mon Sep 10 21:12:44 2018
### 

@<TRIPOS>MOLECULE
7gch_ligand
   51    51     1     0     0
SMALL
GAST_HUCK


@<TRIPOS>ATOM
      1 C1         34.9640   76.3580   85.4680 C.3       1 LPF         0.4177
      2 F11        35.0840   74.8140   85.4240 F         1 LPF        -0.1678
      3 F12        34.4980   76.8280   83.9880 F         1 LPF        -0.1678
      4 F13        33.7480   76.8190   86.3780 F         1 LPF        -0.1678
      5 C2         36.1510   77.0760   86.0450 C.3       1 LPF         0.1745
      6 O2         35.8950   78.5660   86.0070 O.3       1 LPF        -0.3808
      7 C3         36.1890   76.7310   87.4500 C.3       1 LPF         0.0858
      8 C4         37.2740   77.6330   88.1070 C.3       1 LPF         0.0067
      9 CP1        37.7160   77.5960   89.5630 C.ar      1 LPF        -0.0408
     10 CP2        36.9550   77.1780   90.5620 C.ar      1 LPF        -0.0603
     11 CP3        37.3930   77.2180   91.8660 C.ar      1 LPF        -0.0686
     12 CP4        38.6340   77.6800   92.1230 C.ar      1 LPF        -0.0687
     13 CP5        39.4260   78.1040   91.1030 C.ar      1 LPF        -0.0686
     14 CP6        38.9260   78.0580   89.8530 C.ar      1 LPF        -0.0603
     15 N3         36.6690   75.3320   87.5100 N.am      1 LPF        -0.2772
     16 CN1        35.9430   74.2590   88.0850 C.2       1 LPF         0.2021
     17 ON1        34.8830   74.4890   88.6240 O.2       1 LPF        -0.3945
     18 CN2        36.8270   73.0220   87.9090 C.3       1 LPF         0.1310
     19 NL1        36.9780   72.3140   89.1660 N.am      1 LPF        -0.2658
     20 CL1        37.0850   72.9250   90.2730 C.2       1 LPF         0.1751
     21 OL1        37.9670   74.0270   90.6440 O.2       1 LPF        -0.3972
     22 CL2        36.3980   72.5650   91.2850 C.3       1 LPF         0.0258
     23 CA1        36.5740   72.0190   86.7960 C.3       1 LPF        -0.0101
     24 CA2        37.6070   70.8850   86.5800 C.3       1 LPF        -0.0425
     25 CA3        38.0190   70.1860   87.9080 C.3       1 LPF        -0.0625
     26 CA4        38.9330   71.4000   85.9270 C.3       1 LPF        -0.0625
     27 H1         37.0807   76.8075   85.5221 H         1 LPF         0.0709
     28 H2         35.7613   78.8404   85.1074 H         1 LPF         0.2103
     29 H3         35.2088   76.8518   87.9343 H         1 LPF         0.0607
     30 H4         36.9307   78.6642   87.9377 H         1 LPF         0.0449
     31 H5         38.1893   77.4510   87.5248 H         1 LPF         0.0449
     32 H6         35.9636   76.7952   90.3480 H         1 LPF         0.0557
     33 H7         36.7514   76.8838   92.6732 H         1 LPF         0.0599
     34 H8         38.9996   77.7131   93.1429 H         1 LPF         0.0559
     35 H9         40.4298   78.4682   91.2898 H         1 LPF         0.0599
     36 H10        39.5456   78.4179   89.0396 H         1 LPF         0.0557
     37 H11        37.5666   75.1302   87.1182 H         1 LPF         0.1857
     38 H12        37.8167   73.4395   87.6719 H         1 LPF         0.0800
     39 H13        36.9984   71.3142   89.1600 H         1 LPF         0.1882
     40 H14        36.6344   73.2165   92.1392 H         1 LPF         0.0467
     41 H15        36.6402   71.5229   91.5407 H         1 LPF         0.0467
     42 H16        35.3268   72.6451   91.0483 H         1 LPF         0.0467
     43 H17        36.5110   72.5855   85.8552 H         1 LPF         0.0315
     44 H18        35.6047   71.5415   87.0021 H         1 LPF         0.0315
     45 H19        37.1484   70.1395   85.9138 H         1 LPF         0.0298
     46 H20        38.7509   69.3933   87.6934 H         1 LPF         0.0232
     47 H21        37.1295   69.7452   88.3817 H         1 LPF         0.0232
     48 H22        38.4680   70.9253   88.5876 H         1 LPF         0.0232
     49 H23        38.7019   71.9064   84.9783 H         1 LPF         0.0232
     50 H24        39.6018   70.5482   85.7344 H         1 LPF         0.0232
     51 H25        39.4271   72.1073   86.6093 H         1 LPF         0.0232
@<TRIPOS>BOND
     1    1    2 1  
     2    1    3 1  
     3    1    4 1  
     4    1    5 1  
     5    5    6 1  
     6    5    7 1  
     7    7    8 1  
     8    7   15 1  
     9    8    9 1  
    10    9   10 ar 
    11    9   14 ar 
    12   10   11 ar 
    13   11   12 ar 
    14   12   13 ar 
    15   13   14 ar 
    16   15   16 am 
    17   16   17 2  
    18   16   18 1  
    19   18   19 1  
    20   18   23 1  
    21   19   20 am 
    22   20   21 2  
    23   20   22 1  
    24   23   24 1  
    25   24   25 1  
    26   24   26 1  
    27    5   27 1  
    28    6   28 1  
    29    7   29 1  
    30    8   30 1  
    31    8   31 1  
    32   10   32 1  
    33   11   33 1  
    34   12   34 1  
    35   13   35 1  
    36   14   36 1  
    37   15   37 1  
    38   18   38 1  
    39   19   39 1  
    40   22   40 1  
    41   22   41 1  
    42   22   42 1  
    43   23   43 1  
    44   23   44 1  
    45   24   45 1  
    46   25   46 1  
    47   25   47 1  
    48   25   48 1  
    49   26   49 1  
    50   26   50 1  
    51   26   51 1  
@<TRIPOS>SUBSTRUCTURE
     1 LPF         1

