### 
### Created by X-TOOL on Mon Sep 10 21:12:46 2018
### 

@<TRIPOS>MOLECULE
7kme_ligand
   81    83     1     0     0
SMALL
GAST_HUCK


@<TRIPOS>ATOM
      1 N          17.1830  -13.0920   19.9320 N.am      1 0BN        -0.2640
      2 CA         16.2520  -12.7200   20.8510 C.3       1 0BN         0.1404
      3 C          15.8890  -13.8980   21.6630 C.2       1 0BN         0.2060
      4 O          15.7060  -13.8480   22.9360 O.2       1 0BN        -0.3942
      5 O1         18.9700  -13.6290   21.3040 O.2       1 ACE        -0.3972
      6 CH         19.3800  -12.9130   18.9610 C.3       1 ACE         0.0258
      7 C11        18.4600  -13.2120   20.0640 C.2       1 ACE         0.1752
      8 N16        10.8860  -10.2570   24.5510 N.pl3     1 0BN        -0.2729
      9 N17        10.0420  -12.1350   24.0130 N.pl3     1 0BN        -0.2729
     10 C1         13.9100  -11.8440   21.0910 C.ar      1 0BN        -0.0386
     11 C2         12.8690  -12.8540   21.2740 C.ar      1 0BN        -0.0601
     12 C3         11.8690  -12.5930   22.1980 C.ar      1 0BN        -0.0633
     13 C4         11.8780  -11.4260   23.0010 C.ar      1 0BN         0.0188
     14 C5         12.8540  -10.5110   22.8090 C.ar      1 0BN        -0.0633
     15 C6         13.8480  -10.7230   21.8400 C.ar      1 0BN        -0.0601
     16 C7         14.9020  -12.0870   20.1450 C.3       1 0BN         0.0214
     17 C15        10.9600  -11.2390   23.8670 C.cat     1 0BN         0.2318
     18 C1         14.1640  -17.0260   20.6410 C.3       1 CHG        -0.0006
     19 C2         13.5110  -18.1410   21.5080 C.3       1 CHG        -0.0460
     20 C3         12.3520  -18.7530   20.7480 C.3       1 CHG        -0.0526
     21 C4         11.3160  -17.6690   20.4930 C.3       1 CHG        -0.0530
     22 C5         12.0310  -16.7160   19.5180 C.3       1 CHG        -0.0526
     23 C6         13.0980  -16.1210   20.2590 C.3       1 CHG        -0.0460
     24 C7         15.0130  -16.1900   21.6330 C.3       1 CHG         0.1336
     25 C8         16.1600  -17.0100   22.2910 C.2       1 CHG         0.2027
     26 N7         15.5850  -14.9890   21.0270 N.am      1 CHG        -0.2633
     27 O1         17.1540  -17.4110   21.6370 O.2       1 CHG        -0.3945
     28 N          16.1180  -17.1110   23.7880 N.am      1 PRR        -0.2733
     29 CA         17.1110  -17.9460   24.5690 C.3       1 PRR         0.0968
     30 C          16.5940  -19.3330   24.7570 C.3       1 PRR         0.0736
     31 O          15.1360  -19.7050   24.8520 O.3       1 PRR        -0.3921
     32 N1         21.0380  -15.8350   25.3890 N.ar      1 PRR        -0.2907
     33 C2         20.9250  -14.7830   24.4640 C.ar      1 PRR         0.0755
     34 C3         19.6920  -14.5210   23.9610 C.ar      1 PRR         0.0435
     35 C4         18.5770  -15.2240   24.3420 C.ar      1 PRR         0.0537
     36 C5         17.4970  -17.0130   25.6500 C.3       1 PRR         0.0713
     37 C8         18.6740  -16.2240   25.2660 C.ar      1 PRR         0.1065
     38 C9         19.9290  -16.5860   25.7830 C.ar      1 PRR         0.1048
     39 C10        22.2260  -16.1590   25.8950 C.3       1 PRR         0.0175
     40 H1         16.8254  -13.3030   19.0223 H         1 0BN         0.1884
     41 H2         16.6923  -11.9542   21.5065 H         1 0BN         0.0823
     42 H3         20.4155  -13.0821   19.2912 H         1 ACE         0.0467
     43 H4         19.2590  -11.8628   18.6570 H         1 ACE         0.0467
     44 H5         19.1554  -13.5699   18.1078 H         1 ACE         0.0467
     45 H6         10.1211  -10.1617   25.2342 H         1 0BN         0.3180
     46 H7         11.5874   -9.5087   24.4554 H         1 0BN         0.3180
     47 H8         10.0664  -12.9945   23.4459 H         1 0BN         0.3180
     48 H9          9.2852  -11.9903   24.6966 H         1 0BN         0.3180
     49 H10        12.8787  -13.7770   20.7056 H         1 0BN         0.0557
     50 H11        11.0569  -13.3023   22.3092 H         1 0BN         0.0599
     51 H12        12.8696   -9.6071   23.4072 H         1 0BN         0.0599
     52 H13        14.5968   -9.9542   21.6872 H         1 0BN         0.0557
     53 H14        14.5198  -12.7983   19.3980 H         1 0BN         0.0474
     54 H15        15.1655  -11.1410   19.6494 H         1 0BN         0.0474
     55 H16        14.7351  -17.4185   19.7867 H         1 CHG         0.0348
     56 H17        13.1442  -17.7066   22.4497 H         1 CHG         0.0270
     57 H18        14.2569  -18.9187   21.7289 H         1 CHG         0.0270
     58 H19        11.9037  -19.5620   21.3434 H         1 CHG         0.0265
     59 H20        12.7091  -19.1577   19.7895 H         1 CHG         0.0265
     60 H21        11.0502  -17.1509   21.4262 H         1 CHG         0.0265
     61 H22        10.4085  -18.0911   20.0366 H         1 CHG         0.0265
     62 H23        11.3356  -15.9420   19.1613 H         1 CHG         0.0265
     63 H24        12.4285  -17.2761   18.6587 H         1 CHG         0.0265
     64 H25        13.5350  -15.3210   19.6434 H         1 CHG         0.0270
     65 H26        12.6744  -15.6875   21.1769 H         1 CHG         0.0270
     66 H27        14.3340  -15.8656   22.4353 H         1 CHG         0.0803
     67 H28        15.7563  -15.0090   20.0420 H         1 CHG         0.1883
     68 H29        15.4105  -16.6100   24.2864 H         1 PRR         0.1861
     69 H30        18.0163  -18.0811   23.9590 H         1 PRR         0.0659
     70 H31        17.0502  -19.6924   25.6912 H         1 PRR         0.0586
     71 H32        16.9900  -19.9115   23.9093 H         1 PRR         0.0586
     72 H33        15.0570  -20.6443   24.9702 H         1 PRR         0.2095
     73 H34        21.7900  -14.2028   24.1636 H         1 PRR         0.1509
     74 H35        19.5841  -13.7268   23.2311 H         1 PRR         0.1041
     75 H36        17.6137  -14.9839   23.9068 H         1 PRR         0.1050
     76 H37        17.7305  -17.5897   26.5571 H         1 PRR         0.0836
     77 H38        16.6579  -16.3317   25.8544 H         1 PRR         0.0836
     78 H39        20.0330  -17.4215   26.4658 H         1 PRR         0.1399
     79 H40        22.9932  -15.4813   25.4923 H         1 PRR         0.0425
     80 H41        22.4715  -17.1954   25.6199 H         1 PRR         0.0425
     81 H42        22.1950  -16.0680   26.9908 H         1 PRR         0.0425
@<TRIPOS>BOND
     1    1    7 am 
     2    2    1 1  
     3    2   16 1  
     4    3    2 1  
     5    3    4 2  
     6   16   10 1  
     7   10   15 ar 
     8   10   11 ar 
     9   11   12 ar 
    10   12   13 ar 
    11   13   17 1  
    12   14   13 ar 
    13   15   14 ar 
    14   17    8 ar 
    15   17    9 ar 
    16    7    5 2  
    17    7    6 1  
    18   24   18 1  
    19   18   23 1  
    20   18   19 1  
    21   19   20 1  
    22   20   21 1  
    23   22   21 1  
    24   23   22 1  
    25   26   24 1  
    26   24   25 1  
    27   25   27 2  
    28   28   29 1  
    29   29   36 1  
    30   29   30 1  
    31   30   31 1  
    32   36   37 1  
    33   37   38 ar 
    34   37   35 ar 
    35   35   34 ar 
    36   34   33 ar 
    37   32   33 ar 
    38   32   39 1  
    39   38   32 ar 
    40   25   28 am 
    41   26    3 am 
    42    1   40 1  
    43    2   41 1  
    44    6   42 1  
    45    6   43 1  
    46    6   44 1  
    47    8   45 1  
    48    8   46 1  
    49    9   47 1  
    50    9   48 1  
    51   11   49 1  
    52   12   50 1  
    53   14   51 1  
    54   15   52 1  
    55   16   53 1  
    56   16   54 1  
    57   18   55 1  
    58   19   56 1  
    59   19   57 1  
    60   20   58 1  
    61   20   59 1  
    62   21   60 1  
    63   21   61 1  
    64   22   62 1  
    65   22   63 1  
    66   23   64 1  
    67   23   65 1  
    68   24   66 1  
    69   26   67 1  
    70   28   68 1  
    71   29   69 1  
    72   30   70 1  
    73   30   71 1  
    74   31   72 1  
    75   33   73 1  
    76   34   74 1  
    77   35   75 1  
    78   36   76 1  
    79   36   77 1  
    80   38   78 1  
    81   39   79 1  
    82   39   80 1  
    83   39   81 1  
@<TRIPOS>SUBSTRUCTURE
     1 0BN         1

