### 
### Created by X-TOOL on Mon Sep 10 21:12:47 2018
### 

@<TRIPOS>MOLECULE
7prc_ligand
   32    32     1     0     0
SMALL
GAST_HUCK


@<TRIPOS>ATOM
      1 N1        132.0550   70.7860   -2.6830 N.ar      1 CET        -0.2288
      2 C2        131.5200   69.7050   -2.1990 C.ar      1 CET         0.1794
      3 CL2       131.1710   69.7820   -0.4740 Cl        1 CET        -0.0063
      4 N3        131.2010   68.5720   -2.7680 N.ar      1 CET        -0.2287
      5 C4        131.4810   68.5820   -4.1020 C.ar      1 CET         0.1864
      6 N5        132.0340   69.6060   -4.7680 N.ar      1 CET        -0.2218
      7 C6        132.3000   70.6750   -4.0290 C.ar      1 CET         0.1844
      8 N7        131.1740   67.4980   -4.8070 N.pl3     1 CET        -0.2584
      9 C8        130.5390   66.2900   -4.2840 C.3       1 CET         0.1752
     10 C9        131.4040   65.6450   -3.2890 C.1       1 CET         0.1223
     11 N9        132.0690   65.0980   -2.4640 N.1       1 CET        -0.3007
     12 C10       129.2150   66.6890   -3.6510 C.3       1 CET        -0.0045
     13 C11       128.3000   67.2250   -4.7240 C.3       1 CET        -0.0608
     14 C12       130.3090   65.3050   -5.4500 C.3       1 CET        -0.0134
     15 N13       132.8510   71.7500   -4.6160 N.pl3     1 CET        -0.2869
     16 C14       133.1950   72.9960   -3.9250 C.3       1 CET         0.0300
     17 C15       133.6730   74.0740   -4.8530 C.3       1 CET        -0.0441
     18 H         131.4040   67.5103   -5.8109 H         1 CET         0.1924
     19 H         129.3883   67.4661   -2.8920 H         1 CET         0.0310
     20 H         128.7529   65.8103   -3.1773 H         1 CET         0.0310
     21 H         127.3392   67.5163   -4.2746 H         1 CET         0.0231
     22 H         128.1291   66.4469   -5.4825 H         1 CET         0.0231
     23 H         128.7645   68.1027   -5.1972 H         1 CET         0.0231
     24 H         129.8310   64.3906   -5.0686 H         1 CET         0.0277
     25 H         131.2749   65.0492   -5.9099 H         1 CET         0.0277
     26 H         129.6571   65.7731   -6.2023 H         1 CET         0.0277
     27 H         133.0461   71.6948   -5.6258 H         1 CET         0.1897
     28 H         133.9913   72.7834   -3.1965 H         1 CET         0.0526
     29 H         132.3020   73.3606   -3.3962 H         1 CET         0.0526
     30 H         133.9130   74.9773   -4.2729 H         1 CET         0.0250
     31 H         132.8835   74.3061   -5.5830 H         1 CET         0.0250
     32 H         134.5728   73.7290   -5.3833 H         1 CET         0.0250
@<TRIPOS>BOND
     1    1    2 ar 
     2    1    7 ar 
     3    2    3 1  
     4    2    4 ar 
     5    4    5 ar 
     6    5    6 ar 
     7    5    8 1  
     8    6    7 ar 
     9    7   15 1  
    10    8    9 1  
    11    9   10 1  
    12    9   12 1  
    13    9   14 1  
    14   10   11 3  
    15   12   13 1  
    16   15   16 1  
    17   16   17 1  
    18    8   18 1  
    19   12   19 1  
    20   12   20 1  
    21   13   21 1  
    22   13   22 1  
    23   13   23 1  
    24   14   24 1  
    25   14   25 1  
    26   14   26 1  
    27   15   27 1  
    28   16   28 1  
    29   16   29 1  
    30   17   30 1  
    31   17   31 1  
    32   17   32 1  
@<TRIPOS>SUBSTRUCTURE
     1 CET         1

