### 
### Created by X-TOOL on Mon Sep 10 21:12:46 2018
### 

@<TRIPOS>MOLECULE
7upj_ligand
   63    67     1     0     0
SMALL
GAST_HUCK


@<TRIPOS>ATOM
      1 CA         12.9630   24.1000    5.3730 C.2       1 INU         0.0471
      2 CA2        12.5940   22.8440    5.9470 C.2       1 INU         0.2395
      3 OA2        11.4470   22.5440    6.0220 O.2       1 INU        -0.4069
      4 OA3        13.4860   21.9770    6.4690 O.3       1 INU        -0.2137
      5 CA4        14.8300   22.4030    6.4230 C.2       1 INU         0.1251
      6 CA5        15.2710   23.6230    5.8890 C.2       1 INU         0.0148
      7 CA6        14.3120   24.4820    5.3550 C.2       1 INU         0.0807
      8 OA6        14.7250   25.6750    4.8300 O.3       1 INU        -0.3393
      9 CB1        11.2720   25.8560    5.9360 C.ar      1 INU        -0.0527
     10 CB2        12.0820   26.4400    6.9430 C.ar      1 INU        -0.0767
     11 CB3        11.4870   27.2460    7.9300 C.ar      1 INU        -0.0843
     12 CB4        10.1100   27.4950    7.9530 C.ar      1 INU        -0.0526
     13 CB5         9.2800   26.9260    6.9500 C.ar      1 INU         0.0555
     14 CB6         9.8720   26.1000    5.9490 C.ar      1 INU        -0.0441
     15 CG1        11.9100   25.0510    4.8330 C.3       1 INU         0.0115
     16 CG2        10.9340   24.3880    3.8370 C.3       1 INU        -0.0260
     17 CG3        11.3620   24.2700    2.3830 C.3       1 INU        -0.0467
     18 CG4        10.2150   25.1970    2.7750 C.3       1 INU        -0.0467
     19 CD1        15.7680   21.3830    7.0500 C.3       1 INU         0.0205
     20 CD2        15.9780   21.5560    8.5390 C.3       1 INU        -0.0375
     21 CD3        16.2140   22.9870    8.9940 C.3       1 INU        -0.0506
     22 CD4        17.4920   23.6590    8.4420 C.3       1 INU        -0.0520
     23 CD5        17.3020   24.6280    7.2520 C.3       1 INU        -0.0495
     24 CD6        16.7370   24.0090    5.9090 C.3       1 INU        -0.0311
     25 N           7.8910   27.2770    6.9080 N.am      1 INU        -0.1889
     26 S           7.5030   28.6780    6.0930 S.o2      1 INU         0.0893
     27 O1          6.1590   28.9700    6.5430 O.2       1 INU        -0.1446
     28 O2          8.5110   29.6400    6.4390 O.2       1 INU        -0.1446
     29 CE1         7.4840   28.2200    4.4120 C.ar      1 INU         0.1141
     30 CE2         6.3970   27.4300    3.9370 C.ar      1 INU        -0.0346
     31 CE3         6.3680   27.0320    2.6040 C.ar      1 INU        -0.0599
     32 CE4         7.4070   27.4080    1.7260 C.ar      1 INU        -0.0616
     33 CE5         8.4890   28.1860    2.1890 C.ar      1 INU        -0.0599
     34 CE6         8.5390   28.5960    3.5280 C.ar      1 INU        -0.0346
     35 H1         15.3307   25.5129    4.1163 H         1 INU         0.2481
     36 H2         13.1520   26.2664    6.9519 H         1 INU         0.0415
     37 H3         12.1139   27.6877    8.6961 H         1 INU         0.0555
     38 H4          9.6801   28.1170    8.7298 H         1 INU         0.0425
     39 H5          9.2447   25.6518    5.1870 H         1 INU         0.0414
     40 H6         12.4633   25.7859    4.2299 H         1 INU         0.0525
     41 H7         10.4088   23.5588    4.3336 H         1 INU         0.0338
     42 H8         11.1566   23.3466    1.8216 H         1 INU         0.0271
     43 H9         12.3238   24.6918    2.0560 H         1 INU         0.0271
     44 H10        10.3493   26.2878    2.7296 H         1 INU         0.0271
     45 H11         9.1820   24.9427    2.4952 H         1 INU         0.0271
     46 H12        16.7461   21.4646    6.5533 H         1 INU         0.0503
     47 H13        15.3510   20.3801    6.8761 H         1 INU         0.0503
     48 H14        15.0839   21.1770    9.0557 H         1 INU         0.0294
     49 H15        16.8525   20.9565    8.8319 H         1 INU         0.0294
     50 H16        15.3503   23.5900    8.6773 H         1 INU         0.0267
     51 H17        16.2784   22.9871   10.0921 H         1 INU         0.0267
     52 H18        17.9536   24.2256    9.2642 H         1 INU         0.0266
     53 H19        18.1758   22.8609    8.1174 H         1 INU         0.0266
     54 H20        16.6058   25.4167    7.5734 H         1 INU         0.0277
     55 H21        18.2821   25.0736    7.0263 H         1 INU         0.0277
     56 H22        16.8957   24.7490    5.1108 H         1 INU         0.0335
     57 H23        17.3212   23.1029    5.6904 H         1 INU         0.0335
     58 H24         7.1916   26.7111    7.3447 H         1 INU         0.2160
     59 H25         5.5978   27.1410    4.6100 H         1 INU         0.0637
     60 H26         5.5437   26.4305    2.2383 H         1 INU         0.0618
     61 H27         7.3734   27.0967    0.6882 H         1 INU         0.0618
     62 H28         9.2835   28.4673    1.5073 H         1 INU         0.0618
     63 H29         9.3697   29.1920    3.8881 H         1 INU         0.0637
@<TRIPOS>BOND
     1    1   15 1  
     2    1    7 2  
     3    1    2 1  
     4    2    4 1  
     5    2    3 2  
     6    4    5 1  
     7    5   19 1  
     8    5    6 2  
     9    6   24 1  
    10    6    7 1  
    11    7    8 1  
    12   24   23 1  
    13   23   22 1  
    14   22   21 1  
    15   21   20 1  
    16   20   19 1  
    17   15   16 1  
    18   15    9 1  
    19    9   14 ar 
    20    9   10 ar 
    21   10   11 ar 
    22   11   12 ar 
    23   12   13 ar 
    24   13   25 1  
    25   13   14 ar 
    26   25   26 am 
    27   26   29 1  
    28   26   28 2  
    29   26   27 2  
    30   29   34 ar 
    31   29   30 ar 
    32   30   31 ar 
    33   31   32 ar 
    34   32   33 ar 
    35   33   34 ar 
    36   16   18 1  
    37   16   17 1  
    38   17   18 1  
    39    8   35 1  
    40   10   36 1  
    41   11   37 1  
    42   12   38 1  
    43   14   39 1  
    44   15   40 1  
    45   16   41 1  
    46   17   42 1  
    47   17   43 1  
    48   18   44 1  
    49   18   45 1  
    50   19   46 1  
    51   19   47 1  
    52   20   48 1  
    53   20   49 1  
    54   21   50 1  
    55   21   51 1  
    56   22   52 1  
    57   22   53 1  
    58   23   54 1  
    59   23   55 1  
    60   24   56 1  
    61   24   57 1  
    62   25   58 1  
    63   30   59 1  
    64   31   60 1  
    65   32   61 1  
    66   33   62 1  
    67   34   63 1  
@<TRIPOS>SUBSTRUCTURE
     1 INU         1

