### 
### Created by X-TOOL on Mon Sep 10 21:12:47 2018
### 

@<TRIPOS>MOLECULE
8a3h_ligand
   48    50     1     0     0
SMALL
GAST_HUCK


@<TRIPOS>ATOM
      1 C1A        60.7210   46.8410   36.9070 C.3       1 IDC         0.1884
      2 C2A        61.0520   48.2560   36.5130 C.3       1 IDC         0.1341
      3 C3A        60.4620   49.2150   37.5340 C.3       1 IDC         0.1141
      4 C4A        58.9580   48.9890   37.6380 C.3       1 IDC         0.1119
      5 C5A        58.7260   47.5060   38.0050 C.3       1 IDC         0.1130
      6 C6A        57.2960   47.0880   38.0840 C.3       1 IDC         0.0730
      7 O2A        62.4950   48.3600   36.4680 O.3       1 IDC        -0.3841
      8 O3A        60.6970   50.5800   37.1370 O.3       1 IDC        -0.3864
      9 O4A        58.4120   49.8290   38.6670 O.3       1 IDC        -0.3865
     10 O5A        59.3050   46.6870   36.9510 O.3       1 IDC        -0.3405
     11 O6A        56.6540   47.2650   36.8140 O.3       1 IDC        -0.3924
     12 C1B        61.6240   41.9130   36.4280 C.2       1 IDC         0.2393
     13 C2B        60.5480   42.3120   35.4530 C.3       1 IDC         0.2023
     14 C3B        60.6870   43.7830   35.0390 C.3       1 IDC         0.1383
     15 C4B        61.1990   44.5900   36.2520 C.3       1 IDC         0.1119
     16 C5B        62.6230   44.1860   36.5810 C.3       1 IDC         0.0815
     17 C6B        63.2620   44.9630   37.7590 C.3       1 IDC         0.0616
     18 O2B        60.4970   41.4310   34.3250 O.3       1 IDC        -0.3524
     19 O3B        59.4320   44.2030   34.6000 O.3       1 IDC        -0.3810
     20 O4B        61.1810   45.9910   35.8830 O.3       1 IDC        -0.3410
     21 N1B        62.5550   42.7540   36.9350 N.2       1 IDC        -0.2668
     22 O6B        62.4410   44.8280   38.9460 O.3       1 IDC        -0.3936
     23 N2B        61.7790   40.7160   36.9890 N.pl3     1 IDC        -0.1539
     24 C7B        62.8540   40.7640   37.8690 C.2       1 IDC         0.1619
     25 C8B        63.3150   42.0400   37.8410 C.2       1 IDC         0.1008
     26 H1         61.1777   46.5871   37.8750 H         1 IDC         0.0938
     27 H2         60.6331   48.4796   35.5208 H         1 IDC         0.0671
     28 H3         60.9300   49.0340   38.5129 H         1 IDC         0.0648
     29 H4         58.4754   49.2196   36.6768 H         1 IDC         0.0647
     30 H5         59.2158   47.3015   38.9685 H         1 IDC         0.0647
     31 H6         56.7806   47.6994   38.8393 H         1 IDC         0.0584
     32 H7         57.2434   46.0278   38.3723 H         1 IDC         0.0584
     33 H8         62.7402   49.2461   36.2287 H         1 IDC         0.2101
     34 H9         61.6322   50.7323   37.0690 H         1 IDC         0.2100
     35 H10        58.8408   49.6360   39.4925 H         1 IDC         0.2100
     36 H11        57.0963   46.7362   36.1604 H         1 IDC         0.2095
     37 H12        59.5856   42.2155   35.9770 H         1 IDC         0.1097
     38 H13        61.4102   43.8780   34.2156 H         1 IDC         0.0707
     39 H14        60.5507   44.4158   37.1234 H         1 IDC         0.0642
     40 H15        63.2515   44.3285   35.6896 H         1 IDC         0.0498
     41 H16        63.3437   46.0269   37.4919 H         1 IDC         0.0571
     42 H17        64.2644   44.5577   37.9615 H         1 IDC         0.0571
     43 H18        61.2959   41.5200   33.8187 H         1 IDC         0.2182
     44 H19        59.1655   43.6762   33.8558 H         1 IDC         0.2106
     45 H20        62.3708   43.9095   39.1784 H         1 IDC         0.2095
     46 H21        61.1963   39.8876   36.8013 H         1 IDC         0.2738
     47 H22        63.2481   39.9408   38.4631 H         1 IDC         0.1887
     48 H23        64.1415   42.4333   38.4310 H         1 IDC         0.1258
@<TRIPOS>BOND
     1    1    2 1  
     2    1   10 1  
     3   20    1 1  
     4    2    3 1  
     5    2    7 1  
     6    3    4 1  
     7    3    8 1  
     8    5    4 1  
     9    4    9 1  
    10    5    6 1  
    11   10    5 1  
    12    6   11 1  
    13   13   12 1  
    14   14   13 1  
    15   13   18 1  
    16   15   14 1  
    17   14   19 1  
    18   15   16 1  
    19   20   15 1  
    20   16   17 1  
    21   16   21 1  
    22   17   22 1  
    23   21   12 2  
    24   21   25 1  
    25   12   23 1  
    26   23   24 1  
    27   24   25 2  
    28    1   26 1  
    29    2   27 1  
    30    3   28 1  
    31    4   29 1  
    32    5   30 1  
    33    6   31 1  
    34    6   32 1  
    35    7   33 1  
    36    8   34 1  
    37    9   35 1  
    38   11   36 1  
    39   13   37 1  
    40   14   38 1  
    41   15   39 1  
    42   16   40 1  
    43   17   41 1  
    44   17   42 1  
    45   18   43 1  
    46   19   44 1  
    47   22   45 1  
    48   23   46 1  
    49   24   47 1  
    50   25   48 1  
@<TRIPOS>SUBSTRUCTURE
     1 IDC         1

