### 
### Created by X-TOOL on Mon Sep 10 21:12:47 2018
### 

@<TRIPOS>MOLECULE
966c_ligand
   48    50     1     0     0
SMALL
GAST_HUCK


@<TRIPOS>ATOM
      1 C1          6.7140   -7.7550   42.3250 C.ar      1 RS2        -0.0697
      2 C2          5.3340   -7.8810   42.2350 C.ar      1 RS2        -0.0723
      3 C3          4.7190   -7.7530   41.0000 C.ar      1 RS2        -0.0697
      4 C4          5.4650   -7.5420   39.8360 C.ar      1 RS2        -0.0285
      5 C5          6.8450   -7.4470   39.9210 C.ar      1 RS2         0.1161
      6 C6          7.4640   -7.5190   41.1630 C.ar      1 RS2        -0.0285
      7 O12         7.5780   -7.3090   38.7820 O.3       1 RS2        -0.2579
      8 C13         8.1470   -8.4410   38.1950 C.ar      1 RS2         0.1162
      9 C14         8.1560   -9.7450   38.7750 C.ar      1 RS2        -0.0267
     10 C15         8.7360  -10.8210   38.0880 C.ar      1 RS2        -0.0448
     11 C16         9.2480  -10.6020   36.8260 C.ar      1 RS2         0.0784
     12 C17         9.3280   -9.3170   36.2600 C.ar      1 RS2        -0.0448
     13 C18         8.7630   -8.2400   36.9520 C.ar      1 RS2        -0.0267
     14 S23         9.7950  -12.0130   35.8710 S.o2      1 RS2         0.0003
     15 C24        11.5470  -12.1890   36.1860 C.3       1 RS2         0.1122
     16 O25         9.5630  -11.7280   34.4700 O.2       1 RS2        -0.1700
     17 O26         9.1070  -13.1280   36.4170 O.2       1 RS2        -0.1700
     18 C27        12.3670  -11.0400   35.4610 C.3       1 RS2         0.0644
     19 C28        12.6400   -9.6860   36.2030 C.2       1 RS2         0.2009
     20 O31        12.9450   -9.6110   37.3810 O.2       1 RS2        -0.3969
     21 N32        12.5200   -8.5850   35.4500 N.am      1 RS2        -0.1642
     22 O33        12.6700   -7.2650   35.9480 O.3       1 RS2        -0.2717
     23 C36        11.8130  -13.5790   35.5150 C.3       1 RS2        -0.0018
     24 C37        13.2860  -14.0460   35.7420 C.3       1 RS2         0.0498
     25 O38        13.6120  -13.9490   37.1330 O.3       1 RS2        -0.3796
     26 C39        13.3480  -12.7440   37.8640 C.3       1 RS2         0.0498
     27 C40        11.8640  -12.3560   37.7120 C.3       1 RS2        -0.0018
     28 H1          7.2082   -7.8384   43.2862 H         1 RS2         0.0590
     29 H2          4.7435   -8.0776   43.1225 H         1 RS2         0.0528
     30 H3          3.6389   -7.8176   40.9348 H         1 RS2         0.0590
     31 H4          4.9685   -7.4536   38.8764 H         1 RS2         0.0552
     32 H5          8.5381   -7.3914   41.2349 H         1 RS2         0.0552
     33 H6          7.7124   -9.9043   39.7512 H         1 RS2         0.0553
     34 H7          8.7811  -11.8054   38.5397 H         1 RS2         0.0609
     35 H8          9.8182   -9.1638   35.3054 H         1 RS2         0.0609
     36 H9          8.8019   -7.2446   36.5244 H         1 RS2         0.0553
     37 H10        11.8204  -10.7926   34.5391 H         1 RS2         0.0523
     38 H11        13.3484  -11.4644   35.2027 H         1 RS2         0.0523
     39 H12        12.3122   -8.7002   34.4786 H         1 RS2         0.2216
     40 H13        13.5427   -7.1611   36.3089 H         1 RS2         0.2490
     41 H14        11.6257  -13.4969   34.4342 H         1 RS2         0.0310
     42 H15        11.1300  -14.3235   35.9500 H         1 RS2         0.0310
     43 H16        13.9665  -13.4061   35.1611 H         1 RS2         0.0560
     44 H17        13.3939  -15.0900   35.4128 H         1 RS2         0.0560
     45 H18        13.9795  -11.9331   37.4719 H         1 RS2         0.0560
     46 H19        13.5763  -12.9048   38.9280 H         1 RS2         0.0560
     47 H20        11.2285  -13.1460   38.1387 H         1 RS2         0.0310
     48 H21        11.6728  -11.4082   38.2365 H         1 RS2         0.0310
@<TRIPOS>BOND
     1    1    6 ar 
     2    1    2 ar 
     3    2    3 ar 
     4    3    4 ar 
     5    4    5 ar 
     6    5    7 1  
     7    5    6 ar 
     8    7    8 1  
     9    8   13 ar 
    10    8    9 ar 
    11    9   10 ar 
    12   10   11 ar 
    13   11   14 1  
    14   11   12 ar 
    15   12   13 ar 
    16   14   17 2  
    17   14   16 2  
    18   14   15 1  
    19   15   27 1  
    20   15   23 1  
    21   15   18 1  
    22   18   19 1  
    23   19   21 am 
    24   19   20 2  
    25   21   22 1  
    26   23   24 1  
    27   24   25 1  
    28   25   26 1  
    29   26   27 1  
    30    1   28 1  
    31    2   29 1  
    32    3   30 1  
    33    4   31 1  
    34    6   32 1  
    35    9   33 1  
    36   10   34 1  
    37   12   35 1  
    38   13   36 1  
    39   18   37 1  
    40   18   38 1  
    41   21   39 1  
    42   22   40 1  
    43   23   41 1  
    44   23   42 1  
    45   24   43 1  
    46   24   44 1  
    47   26   45 1  
    48   26   46 1  
    49   27   47 1  
    50   27   48 1  
@<TRIPOS>SUBSTRUCTURE
     1 RS2         1

