### 
### Created by X-TOOL on Fri Nov 18 11:50:43 2016
### 

@<TRIPOS>MOLECULE
9abp_ligand
   24    24     1     0     0
SMALL
GAST_HUCK


@<TRIPOS>ATOM
      1 C1         14.2590   56.3430   54.8690 C.3       1 GLA         0.1854
      2 C2         12.8610   56.8100   54.5580 C.3       1 GLA         0.1339
      3 C3         12.4060   56.0910   53.2890 C.3       1 GLA         0.1141
      4 C4         13.3550   56.3430   52.1290 C.3       1 GLA         0.1119
      5 C5         14.7470   55.9050   52.5650 C.3       1 GLA         0.1130
      6 C6         15.7620   56.1560   51.4520 C.3       1 GLA         0.0730
      7 O1         14.8800   57.0110   55.9670 O.3       1 GLA        -0.3649
      8 O2         11.9070   56.5150   55.5860 O.3       1 GLA        -0.3841
      9 O3         11.0420   56.3860   52.9700 O.3       1 GLA        -0.3864
     10 O4         13.2490   57.6640   51.5920 O.3       1 GLA        -0.3865
     11 O5         15.1290   56.5940   53.7560 O.3       1 GLA        -0.3407
     12 O6         17.0260   55.5600   51.7710 O.3       1 GLA        -0.3924
     13 H1         14.2184   55.2641   55.0795 H         1 GLA         0.0935
     14 H2         12.8788   57.8972   54.3914 H         1 GLA         0.0671
     15 H3         12.4511   55.0127   53.5018 H         1 GLA         0.0648
     16 H4         13.0558   55.6690   51.3128 H         1 GLA         0.0647
     17 H5         14.7233   54.8260   52.7777 H         1 GLA         0.0647
     18 H6         15.8966   57.2403   51.3246 H         1 GLA         0.0584
     19 H7         15.3845   55.7208   50.5149 H         1 GLA         0.0584
     20 H8         15.7474   56.6495   56.1065 H         1 GLA         0.2126
     21 H9         11.0493   56.8236   55.3185 H         1 GLA         0.2101
     22 H10        10.7626   55.8406   52.2442 H         1 GLA         0.2100
     23 H11        13.8008   57.7369   50.8222 H         1 GLA         0.2100
     24 H12        16.9147   54.6227   51.8787 H         1 GLA         0.2095
@<TRIPOS>BOND
     1    1    2 1  
     2    1    7 1  
     3    1   11 1  
     4    2    3 1  
     5    2    8 1  
     6    3    4 1  
     7    3    9 1  
     8    4    5 1  
     9    4   10 1  
    10    5    6 1  
    11    5   11 1  
    12    6   12 1  
    13    1   13 1  
    14    2   14 1  
    15    3   15 1  
    16    4   16 1  
    17    5   17 1  
    18    6   18 1  
    19    6   19 1  
    20    7   20 1  
    21    8   21 1  
    22    9   22 1  
    23   10   23 1  
    24   12   24 1  
@<TRIPOS>SUBSTRUCTURE
     1 GLA         1

