### 
### Created by X-TOOL on Mon Sep 10 21:12:44 2018
### 

@<TRIPOS>MOLECULE
9hvp_ligand
  106   109     1     0     0
SMALL
GAST_HUCK


@<TRIPOS>ATOM
      1 C         -12.0830   14.5940   33.2610 C.2       1 0E9         0.3239
      2 O1        -12.6000   15.6490   33.6620 O.2       1 0E9        -0.3773
      3 O2        -12.6010   13.3120   33.6680 O.3       1 0E9        -0.2506
      4 C1'       -13.2990   13.0090   34.8480 C.3       1 0E9         0.1113
      5 C1        -12.8260   11.9560   35.9160 C.ar      1 0E9        -0.0130
      6 C2        -12.5480   10.6110   35.5570 C.ar      1 0E9        -0.0578
      7 C3        -12.2150    9.6550   36.5140 C.ar      1 0E9        -0.0685
      8 C4        -12.1380   10.0200   37.8370 C.ar      1 0E9        -0.0687
      9 C5        -12.3950   11.3240   38.2050 C.ar      1 0E9        -0.0685
     10 C6        -12.7360   12.3010   37.2760 C.ar      1 0E9        -0.0578
     11 N         -10.9760   14.5410   32.5060 N.am      1 0E9        -0.2408
     12 CA        -10.2250   15.6900   32.0200 C.3       1 0E9         0.1350
     13 C         -10.1590   15.5510   30.5150 C.2       1 0E9         0.2023
     14 O          -9.4670   14.6840   29.9680 O.2       1 0E9        -0.3945
     15 CB         -8.7490   15.7380   32.5720 C.3       1 0E9        -0.0063
     16 CG1        -8.0760   17.0320   32.1460 C.3       1 0E9        -0.0584
     17 CG2        -8.6650   15.6460   34.0760 C.3       1 0E9        -0.0584
     18 C1        -12.3970   16.2450   27.9550 C.3       1 0E9         0.0065
     19 C2        -10.9880   16.5300   28.4010 C.3       1 0E9         0.0797
     20 N2        -10.9200   16.4470   29.8780 N.am      1 0E9        -0.2775
     21 C3        -10.3550   17.6980   27.6880 C.3       1 0E9         0.1044
     22 O3        -10.5550   18.7350   28.5720 O.3       1 0E9        -0.3869
     23 C4         -8.8160   17.5400   27.4670 C.3       1 0E9         0.0797
     24 N4         -8.6210   17.4690   26.0050 N.am      1 0E9        -0.2775
     25 C5         -7.9110   18.6430   28.0820 C.3       1 0E9         0.0065
     26 C1A       -12.7300   14.8260   28.4350 C.ar      1 0E9        -0.0408
     27 C2A       -12.1450   13.7400   27.7940 C.ar      1 0E9        -0.0603
     28 C3A       -12.2950   12.4830   28.3300 C.ar      1 0E9        -0.0686
     29 C4A       -13.0330   12.3000   29.4880 C.ar      1 0E9        -0.0687
     30 C5A       -13.6280   13.3790   30.1080 C.ar      1 0E9        -0.0686
     31 C6A       -13.4810   14.6450   29.5930 C.ar      1 0E9        -0.0603
     32 C1B        -6.5470   18.7380   27.3950 C.ar      1 0E9        -0.0408
     33 C2B        -6.3670   19.6140   26.3380 C.ar      1 0E9        -0.0603
     34 C3B        -5.2410   19.5210   25.5490 C.ar      1 0E9        -0.0686
     35 C4B        -4.2870   18.5470   25.8320 C.ar      1 0E9        -0.0687
     36 C5B        -4.4380   17.6730   26.8960 C.ar      1 0E9        -0.0686
     37 C6B        -5.5690   17.7770   27.6800 C.ar      1 0E9        -0.0603
     38 N          -7.0430   16.7750   23.4060 N.am      1 0E9        -0.2408
     39 CA         -8.4190   16.5220   23.8030 C.3       1 0E9         0.1350
     40 C          -8.3660   16.3310   25.3210 C.2       1 0E9         0.2023
     41 O          -7.9880   15.2560   25.8270 O.2       1 0E9        -0.3945
     42 CB         -9.1210   15.3060   23.1670 C.3       1 0E9        -0.0063
     43 CG1       -10.5990   15.5070   23.4070 C.3       1 0E9        -0.0584
     44 CG2        -8.7550   15.1110   21.6910 C.3       1 0E9        -0.0584
     45 C          -6.7510   17.8020   22.6040 C.2       1 0E9         0.3239
     46 O1         -7.5630   18.4100   21.8750 O.2       1 0E9        -0.3773
     47 O2         -5.4000   18.1330   22.5140 O.3       1 0E9        -0.2506
     48 C1'        -4.6830   18.4410   21.3980 C.3       1 0E9         0.1113
     49 C1         -3.2830   17.8450   21.4820 C.ar      1 0E9        -0.0130
     50 C2         -2.2080   18.6600   21.7690 C.ar      1 0E9        -0.0578
     51 C3         -0.9790   18.0670   21.9600 C.ar      1 0E9        -0.0685
     52 C4         -0.8230   16.6920   21.8730 C.ar      1 0E9        -0.0687
     53 C5         -1.9040   15.8970   21.5790 C.ar      1 0E9        -0.0685
     54 C6         -3.1380   16.4680   21.3740 C.ar      1 0E9        -0.0578
     55 H1        -14.2960   12.6752   34.5247 H         1 0E9         0.0776
     56 H2        -13.3894   13.9612   35.3912 H         1 0E9         0.0776
     57 H3        -12.5960   10.3210   34.5136 H         1 0E9         0.0557
     58 H4        -12.0181    8.6311   36.2176 H         1 0E9         0.0599
     59 H5        -11.8759    9.2847   38.5892 H         1 0E9         0.0559
     60 H6        -12.3291   11.5962   39.2522 H         1 0E9         0.0599
     61 H7        -12.9304   13.3180   37.5971 H         1 0E9         0.0557
     62 H8        -10.6370   13.6343   32.2551 H         1 0E9         0.1899
     63 H9        -10.7471   16.6168   32.3001 H         1 0E9         0.0802
     64 H10        -8.1987   14.8883   32.1418 H         1 0E9         0.0342
     65 H11        -7.0476   17.0559   32.5357 H         1 0E9         0.0234
     66 H12        -8.6397   17.8876   32.5463 H         1 0E9         0.0234
     67 H13        -8.0533   17.0893   31.0477 H         1 0E9         0.0234
     68 H14        -9.1458   14.7161   34.4139 H         1 0E9         0.0234
     69 H15        -9.1787   16.5086   34.5254 H         1 0E9         0.0234
     70 H16        -7.6093   15.6461   34.3850 H         1 0E9         0.0234
     71 H17       -12.4668   16.3010   26.8587 H         1 0E9         0.0449
     72 H18       -13.0914   16.9703   28.4041 H         1 0E9         0.0449
     73 H19       -10.3938   15.6709   28.0562 H         1 0E9         0.0605
     74 H20       -11.4648   17.0864   30.4205 H         1 0E9         0.1857
     75 H21       -10.8508   17.8799   26.7231 H         1 0E9         0.0643
     76 H22       -10.1861   19.5327   28.2113 H         1 0E9         0.2100
     77 H23        -8.5079   16.5847   27.9170 H         1 0E9         0.0605
     78 H24        -8.6817   18.3211   25.4852 H         1 0E9         0.1857
     79 H25        -7.7537   18.4161   29.1468 H         1 0E9         0.0449
     80 H26        -8.4221   19.6122   27.9852 H         1 0E9         0.0449
     81 H27       -11.5770   13.8827   26.8818 H         1 0E9         0.0557
     82 H28       -11.8336   11.6309   27.8442 H         1 0E9         0.0599
     83 H29       -13.1431   11.3067   29.9078 H         1 0E9         0.0559
     84 H30       -14.2150   13.2277   31.0067 H         1 0E9         0.0599
     85 H31       -13.9449   15.4932   30.0833 H         1 0E9         0.0557
     86 H32        -7.1123   20.3735   26.1310 H         1 0E9         0.0557
     87 H33        -5.0993   20.1998   24.7158 H         1 0E9         0.0599
     88 H34        -3.4058   18.4710   25.2052 H         1 0E9         0.0559
     89 H35        -3.6841   16.9236   27.1083 H         1 0E9         0.0599
     90 H36        -5.7015   17.1092   28.5235 H         1 0E9         0.0557
     91 H37        -6.3121   16.1771   23.7351 H         1 0E9         0.1899
     92 H38        -9.0165   17.4127   23.5589 H         1 0E9         0.0802
     93 H39        -8.8027   14.3985   23.7010 H         1 0E9         0.0342
     94 H40       -11.1587   14.6653   22.9730 H         1 0E9         0.0234
     95 H41       -10.9230   16.4456   22.9338 H         1 0E9         0.0234
     96 H42       -10.7914   15.5563   24.4889 H         1 0E9         0.0234
     97 H43        -7.6678   14.9717   21.5982 H         1 0E9         0.0234
     98 H44        -9.0613   15.9979   21.1170 H         1 0E9         0.0234
     99 H45        -9.2731   14.2234   21.2989 H         1 0E9         0.0234
    100 H46        -4.6060   19.5346   21.3075 H         1 0E9         0.0776
    101 H47        -5.1968   18.0351   20.5141 H         1 0E9         0.0776
    102 H48        -2.3264   19.7350   21.8421 H         1 0E9         0.0557
    103 H49        -0.1181   18.6870   22.1824 H         1 0E9         0.0599
    104 H50         0.1508   16.2449   22.0368 H         1 0E9         0.0559
    105 H51        -1.7845   14.8219   21.5088 H         1 0E9         0.0599
    106 H52        -3.9924   15.8472   21.1296 H         1 0E9         0.0557
@<TRIPOS>BOND
     1    1    2 2  
     2    1    3 1  
     3   11    1 am 
     4    3    4 1  
     5    4    5 1  
     6    5    6 ar 
     7    5   10 ar 
     8    6    7 ar 
     9    7    8 ar 
    10    9    8 ar 
    11   10    9 ar 
    12   12   11 1  
    13   13   12 1  
    14   12   15 1  
    15   13   14 2  
    16   20   13 am 
    17   15   16 1  
    18   15   17 1  
    19   19   18 1  
    20   18   26 1  
    21   19   20 1  
    22   21   19 1  
    23   21   22 1  
    24   23   21 1  
    25   24   23 1  
    26   23   25 1  
    27   40   24 am 
    28   25   32 1  
    29   26   27 ar 
    30   26   31 ar 
    31   27   28 ar 
    32   28   29 ar 
    33   30   29 ar 
    34   31   30 ar 
    35   32   33 ar 
    36   32   37 ar 
    37   33   34 ar 
    38   34   35 ar 
    39   36   35 ar 
    40   37   36 ar 
    41   39   38 1  
    42   38   45 am 
    43   39   40 1  
    44   39   42 1  
    45   40   41 2  
    46   42   43 1  
    47   42   44 1  
    48   45   46 2  
    49   45   47 1  
    50   47   48 1  
    51   48   49 1  
    52   49   50 ar 
    53   49   54 ar 
    54   50   51 ar 
    55   51   52 ar 
    56   52   53 ar 
    57   53   54 ar 
    58    4   55 1  
    59    4   56 1  
    60    6   57 1  
    61    7   58 1  
    62    8   59 1  
    63    9   60 1  
    64   10   61 1  
    65   11   62 1  
    66   12   63 1  
    67   15   64 1  
    68   16   65 1  
    69   16   66 1  
    70   16   67 1  
    71   17   68 1  
    72   17   69 1  
    73   17   70 1  
    74   18   71 1  
    75   18   72 1  
    76   19   73 1  
    77   20   74 1  
    78   21   75 1  
    79   22   76 1  
    80   23   77 1  
    81   24   78 1  
    82   25   79 1  
    83   25   80 1  
    84   27   81 1  
    85   28   82 1  
    86   29   83 1  
    87   30   84 1  
    88   31   85 1  
    89   33   86 1  
    90   34   87 1  
    91   35   88 1  
    92   36   89 1  
    93   37   90 1  
    94   38   91 1  
    95   39   92 1  
    96   42   93 1  
    97   43   94 1  
    98   43   95 1  
    99   43   96 1  
   100   44   97 1  
   101   44   98 1  
   102   44   99 1  
   103   48  100 1  
   104   48  101 1  
   105   50  102 1  
   106   51  103 1  
   107   52  104 1  
   108   53  105 1  
   109   54  106 1  
@<TRIPOS>SUBSTRUCTURE
     1 0E9         1

