### 
### Created by X-TOOL on Mon Sep 10 21:13:05 2018
### 

@<TRIPOS>MOLECULE
3rz8_ligand
   39    39     1     0     0
SMALL
GAST_HUCK


@<TRIPOS>ATOM
      1 S          15.0160    0.9640   16.8720 S.o2      1 RZ8         0.0677
      2 N'         18.4590    5.6640   13.4770 N.am      1 RZ8        -0.2861
      3 O'         16.4920    6.7190   13.6000 O.2       1 RZ8        -0.3847
      4 C1         16.6380    4.5780   14.6410 C.ar      1 RZ8         0.0499
      5 C2         14.7570    3.3500   15.5610 C.ar      1 RZ8        -0.0295
      6 C3         15.2410    4.4420   14.8480 C.ar      1 RZ8        -0.0401
      7 C4         15.6240    2.3200   16.0760 C.ar      1 RZ8         0.1122
      8 C5         17.5200    3.5480   15.0500 C.ar      1 RZ8        -0.0401
      9 C6         17.0040    2.4820   15.7990 C.ar      1 RZ8        -0.0295
     10 C7         17.1960    5.7220   13.8730 C.2       1 RZ8         0.2049
     11 C1'        19.0170    6.7460   12.6400 C.3       1 RZ8         0.0304
     12 O1S        13.5760    1.0100   16.7030 O.2       1 RZ8        -0.1499
     13 C2'        20.1770    7.2400   13.4320 C.3       1 RZ8        -0.0328
     14 O2S        15.5630    1.0290   18.2120 O.2       1 RZ8        -0.1499
     15 C3'        19.6820    8.3390   14.3240 C.3       1 RZ8        -0.0512
     16 N3S        15.6550   -0.2720   16.1670 N.am      1 RZ8        -0.2605
     17 C4'        19.9090    9.5710   13.4730 C.3       1 RZ8        -0.0532
     18 C5'        19.4010   10.8150   14.1690 C.3       1 RZ8        -0.0559
     19 C6'        19.1790   11.9580   13.1830 C.3       1 RZ8        -0.0653
     20 H1         19.0331    4.8899   13.7439 H         1 RZ8         0.1845
     21 H2         13.6901    3.2708   15.7355 H         1 RZ8         0.0649
     22 H3         14.5558    5.1836   14.4534 H         1 RZ8         0.0670
     23 H4         18.5716    3.5836   14.7892 H         1 RZ8         0.0670
     24 H5         17.6963    1.7433   16.1864 H         1 RZ8         0.0649
     25 H6         18.2771    7.5454   12.4872 H         1 RZ8         0.0519
     26 H7         19.3446    6.3582   11.6642 H         1 RZ8         0.0519
     27 H8         20.9547    7.6265   12.7570 H         1 RZ8         0.0285
     28 H9         20.5920    6.4222   14.0394 H         1 RZ8         0.0285
     29 H10        20.2624    8.3868   15.2572 H         1 RZ8         0.0266
     30 H11        18.6158    8.2097   14.5616 H         1 RZ8         0.0266
     31 H12        15.4329   -1.1958   16.4790 H         1 RZ8         0.1635
     32 H13        16.2868   -0.1406   15.4031 H         1 RZ8         0.1635
     33 H14        19.3767    9.4510   12.5179 H         1 RZ8         0.0265
     34 H15        20.9864    9.6815   13.2809 H         1 RZ8         0.0265
     35 H16        20.1394   11.1303   14.9209 H         1 RZ8         0.0263
     36 H17        18.4478   10.5821   14.6662 H         1 RZ8         0.0263
     37 H18        18.8109   12.8424   13.7237 H         1 RZ8         0.0230
     38 H19        18.4372   11.6538   12.4299 H         1 RZ8         0.0230
     39 H20        20.1287   12.2020   12.6846 H         1 RZ8         0.0230
@<TRIPOS>BOND
     1    7    1 1  
     2    1   12 2  
     3    1   14 2  
     4    1   16 am 
     5   10    2 am 
     6    2   11 1  
     7   10    3 2  
     8    6    4 ar 
     9    4    8 ar 
    10    4   10 1  
    11    5    6 ar 
    12    5    7 ar 
    13    7    9 ar 
    14    8    9 ar 
    15   11   13 1  
    16   13   15 1  
    17   15   17 1  
    18   17   18 1  
    19   18   19 1  
    20    2   20 1  
    21    5   21 1  
    22    6   22 1  
    23    8   23 1  
    24    9   24 1  
    25   11   25 1  
    26   11   26 1  
    27   13   27 1  
    28   13   28 1  
    29   15   29 1  
    30   15   30 1  
    31   16   31 1  
    32   16   32 1  
    33   17   33 1  
    34   17   34 1  
    35   18   35 1  
    36   18   36 1  
    37   19   37 1  
    38   19   38 1  
    39   19   39 1  
@<TRIPOS>SUBSTRUCTURE
     1 RZ8         1

